*SPEF "ieee 1481-1999"
*DESIGN "wrapped_counter"
*DATE "11:11:11 Fri 11 11, 1111"
*VENDOR "OpenRCX"
*PROGRAM "Parallel Extraction"
*VERSION "1.0"
*DESIGN_FLOW "NAME_SCOPE LOCAL" "PIN_CAP NONE"
*DIVIDER /
*DELIMITER :
*BUS_DELIMITER []
*T_UNIT 1 NS
*C_UNIT 1 PF
*R_UNIT 1 OHM
*L_UNIT 1 HENRY

*NAME_MAP
*1 active
*2 buf_io_out[0]
*3 buf_io_out[10]
*4 buf_io_out[11]
*5 buf_io_out[12]
*6 buf_io_out[13]
*7 buf_io_out[14]
*8 buf_io_out[15]
*9 buf_io_out[16]
*10 buf_io_out[17]
*11 buf_io_out[18]
*12 buf_io_out[19]
*13 buf_io_out[1]
*14 buf_io_out[20]
*15 buf_io_out[21]
*16 buf_io_out[22]
*17 buf_io_out[23]
*18 buf_io_out[24]
*19 buf_io_out[25]
*20 buf_io_out[26]
*21 buf_io_out[27]
*22 buf_io_out[28]
*23 buf_io_out[29]
*24 buf_io_out[2]
*25 buf_io_out[30]
*26 buf_io_out[31]
*27 buf_io_out[32]
*28 buf_io_out[33]
*29 buf_io_out[34]
*30 buf_io_out[35]
*31 buf_io_out[36]
*32 buf_io_out[37]
*33 buf_io_out[3]
*34 buf_io_out[4]
*35 buf_io_out[5]
*36 buf_io_out[6]
*37 buf_io_out[7]
*38 buf_io_out[8]
*39 buf_io_out[9]
*40 io_in[0]
*41 io_in[10]
*42 io_in[11]
*43 io_in[12]
*44 io_in[13]
*45 io_in[14]
*46 io_in[15]
*47 io_in[16]
*48 io_in[17]
*49 io_in[18]
*50 io_in[19]
*51 io_in[1]
*52 io_in[20]
*53 io_in[21]
*54 io_in[22]
*55 io_in[23]
*56 io_in[24]
*57 io_in[25]
*58 io_in[26]
*59 io_in[27]
*60 io_in[28]
*61 io_in[29]
*62 io_in[2]
*63 io_in[30]
*64 io_in[31]
*65 io_in[32]
*66 io_in[33]
*67 io_in[34]
*68 io_in[35]
*69 io_in[36]
*70 io_in[37]
*71 io_in[3]
*72 io_in[4]
*73 io_in[5]
*74 io_in[6]
*75 io_in[7]
*76 io_in[8]
*77 io_in[9]
*78 io_oeb[0]
*79 io_oeb[10]
*80 io_oeb[11]
*81 io_oeb[12]
*82 io_oeb[13]
*83 io_oeb[14]
*84 io_oeb[15]
*85 io_oeb[16]
*86 io_oeb[17]
*87 io_oeb[18]
*88 io_oeb[19]
*89 io_oeb[1]
*90 io_oeb[20]
*91 io_oeb[21]
*92 io_oeb[22]
*93 io_oeb[23]
*94 io_oeb[24]
*95 io_oeb[25]
*96 io_oeb[26]
*97 io_oeb[27]
*98 io_oeb[28]
*99 io_oeb[29]
*100 io_oeb[2]
*101 io_oeb[30]
*102 io_oeb[31]
*103 io_oeb[32]
*104 io_oeb[33]
*105 io_oeb[34]
*106 io_oeb[35]
*107 io_oeb[36]
*108 io_oeb[37]
*109 io_oeb[3]
*110 io_oeb[4]
*111 io_oeb[5]
*112 io_oeb[6]
*113 io_oeb[7]
*114 io_oeb[8]
*115 io_oeb[9]
*116 io_out[0]
*117 io_out[10]
*118 io_out[11]
*119 io_out[12]
*120 io_out[13]
*121 io_out[14]
*122 io_out[15]
*123 io_out[16]
*124 io_out[17]
*125 io_out[18]
*126 io_out[19]
*127 io_out[1]
*128 io_out[20]
*129 io_out[21]
*130 io_out[22]
*131 io_out[23]
*132 io_out[24]
*133 io_out[25]
*134 io_out[26]
*135 io_out[27]
*136 io_out[28]
*137 io_out[29]
*138 io_out[2]
*139 io_out[30]
*140 io_out[31]
*141 io_out[32]
*142 io_out[33]
*143 io_out[34]
*144 io_out[35]
*145 io_out[36]
*146 io_out[37]
*147 io_out[3]
*148 io_out[4]
*149 io_out[5]
*150 io_out[6]
*151 io_out[7]
*152 io_out[8]
*153 io_out[9]
*156 wb_clk_i
*157 _000_
*158 _001_
*159 _002_
*160 _003_
*161 _004_
*162 _005_
*163 _006_
*164 _007_
*165 _008_
*166 _009_
*167 _010_
*168 _011_
*169 _012_
*170 _013_
*171 _014_
*172 _015_
*173 _016_
*174 _017_
*175 _018_
*176 _019_
*177 _020_
*178 _021_
*179 _022_
*180 _023_
*181 _024_
*182 _025_
*183 _026_
*184 _027_
*185 _028_
*186 _029_
*187 _030_
*188 _031_
*189 _032_
*190 _033_
*191 _034_
*192 _035_
*193 _036_
*194 _037_
*195 _038_
*196 _039_
*197 _040_
*198 _041_
*199 _042_
*200 _043_
*201 _044_
*202 _045_
*203 _046_
*204 _047_
*205 _048_
*206 _049_
*207 _050_
*208 _051_
*209 _052_
*210 _053_
*211 _054_
*212 _055_
*213 _056_
*214 _057_
*215 _058_
*216 _059_
*217 _060_
*218 _061_
*219 _062_
*220 _063_
*221 _064_
*222 _065_
*223 _066_
*224 _067_
*225 _068_
*226 _069_
*227 _070_
*228 _071_
*229 _072_
*230 _073_
*231 _074_
*232 _075_
*233 _076_
*234 _077_
*235 _078_
*236 _079_
*237 _080_
*238 _081_
*239 _082_
*240 _083_
*241 _084_
*242 _085_
*243 _086_
*244 _087_
*245 _088_
*246 _089_
*247 _090_
*248 _091_
*249 _092_
*250 _093_
*251 _094_
*252 _095_
*253 _096_
*254 _097_
*255 _098_
*256 _099_
*257 _100_
*258 _101_
*259 _102_
*260 _103_
*261 _104_
*262 _105_
*263 _106_
*264 _107_
*265 _108_
*266 _109_
*267 _110_
*268 _111_
*269 _112_
*270 _113_
*271 _114_
*272 _115_
*273 _116_
*274 _117_
*275 _118_
*276 _119_
*277 net1
*278 net10
*279 net11
*280 net12
*281 net13
*282 net14
*283 net15
*284 net16
*285 net17
*286 net18
*287 net19
*288 net2
*289 net20
*290 net21
*291 net22
*292 net23
*293 net24
*294 net25
*295 net26
*296 net27
*297 net28
*298 net29
*299 net3
*300 net30
*301 net31
*302 net32
*303 net33
*304 net34
*305 net35
*306 net36
*307 net37
*308 net38
*309 net39
*310 net4
*311 net40
*312 net41
*313 net42
*314 net43
*315 net44
*316 net45
*317 net46
*318 net47
*319 net48
*320 net49
*321 net5
*322 net50
*323 net51
*324 net52
*325 net53
*326 net54
*327 net55
*328 net56
*329 net57
*330 net58
*331 net59
*332 net6
*333 net60
*334 net61
*335 net62
*336 net63
*337 net64
*338 net65
*339 net66
*340 net67
*341 net68
*342 net69
*343 net7
*344 net70
*345 net71
*346 net72
*347 net73
*348 net74
*349 net75
*350 net76
*351 net77
*352 net78
*353 net79
*354 net8
*355 net80
*356 net81
*357 net82
*358 net9
*359 FILLER_0_109
*360 FILLER_0_113
*361 FILLER_0_125
*362 FILLER_0_137
*363 FILLER_0_141
*364 FILLER_0_15
*365 FILLER_0_153
*366 FILLER_0_165
*367 FILLER_0_169
*368 FILLER_0_179
*369 FILLER_0_187
*370 FILLER_0_191
*371 FILLER_0_195
*372 FILLER_0_200
*373 FILLER_0_209
*374 FILLER_0_221
*375 FILLER_0_225
*376 FILLER_0_248
*377 FILLER_0_27
*378 FILLER_0_274
*379 FILLER_0_284
*380 FILLER_0_29
*381 FILLER_0_296
*382 FILLER_0_3
*383 FILLER_0_312
*384 FILLER_0_319
*385 FILLER_0_331
*386 FILLER_0_335
*387 FILLER_0_337
*388 FILLER_0_349
*389 FILLER_0_361
*390 FILLER_0_365
*391 FILLER_0_373
*392 FILLER_0_384
*393 FILLER_0_397
*394 FILLER_0_401
*395 FILLER_0_405
*396 FILLER_0_41
*397 FILLER_0_417
*398 FILLER_0_421
*399 FILLER_0_433
*400 FILLER_0_445
*401 FILLER_0_449
*402 FILLER_0_457
*403 FILLER_0_462
*404 FILLER_0_474
*405 FILLER_0_477
*406 FILLER_0_485
*407 FILLER_0_489
*408 FILLER_0_500
*409 FILLER_0_505
*410 FILLER_0_512
*411 FILLER_0_53
*412 FILLER_0_57
*413 FILLER_0_65
*414 FILLER_0_69
*415 FILLER_0_81
*416 FILLER_0_85
*417 FILLER_0_97
*418 FILLER_10_109
*419 FILLER_10_11
*420 FILLER_10_121
*421 FILLER_10_133
*422 FILLER_10_139
*423 FILLER_10_141
*424 FILLER_10_153
*425 FILLER_10_16
*426 FILLER_10_165
*427 FILLER_10_177
*428 FILLER_10_189
*429 FILLER_10_195
*430 FILLER_10_197
*431 FILLER_10_209
*432 FILLER_10_221
*433 FILLER_10_233
*434 FILLER_10_245
*435 FILLER_10_251
*436 FILLER_10_253
*437 FILLER_10_265
*438 FILLER_10_277
*439 FILLER_10_289
*440 FILLER_10_29
*441 FILLER_10_3
*442 FILLER_10_301
*443 FILLER_10_307
*444 FILLER_10_309
*445 FILLER_10_321
*446 FILLER_10_333
*447 FILLER_10_34
*448 FILLER_10_345
*449 FILLER_10_357
*450 FILLER_10_363
*451 FILLER_10_365
*452 FILLER_10_377
*453 FILLER_10_389
*454 FILLER_10_401
*455 FILLER_10_413
*456 FILLER_10_419
*457 FILLER_10_421
*458 FILLER_10_433
*459 FILLER_10_445
*460 FILLER_10_457
*461 FILLER_10_46
*462 FILLER_10_469
*463 FILLER_10_475
*464 FILLER_10_477
*465 FILLER_10_489
*466 FILLER_10_501
*467 FILLER_10_513
*468 FILLER_10_58
*469 FILLER_10_70
*470 FILLER_10_82
*471 FILLER_10_85
*472 FILLER_10_97
*473 FILLER_11_105
*474 FILLER_11_111
*475 FILLER_11_113
*476 FILLER_11_125
*477 FILLER_11_137
*478 FILLER_11_149
*479 FILLER_11_15
*480 FILLER_11_161
*481 FILLER_11_167
*482 FILLER_11_169
*483 FILLER_11_181
*484 FILLER_11_193
*485 FILLER_11_205
*486 FILLER_11_217
*487 FILLER_11_223
*488 FILLER_11_225
*489 FILLER_11_237
*490 FILLER_11_249
*491 FILLER_11_261
*492 FILLER_11_27
*493 FILLER_11_273
*494 FILLER_11_279
*495 FILLER_11_281
*496 FILLER_11_293
*497 FILLER_11_3
*498 FILLER_11_305
*499 FILLER_11_31
*500 FILLER_11_317
*501 FILLER_11_329
*502 FILLER_11_335
*503 FILLER_11_337
*504 FILLER_11_349
*505 FILLER_11_35
*506 FILLER_11_361
*507 FILLER_11_373
*508 FILLER_11_385
*509 FILLER_11_391
*510 FILLER_11_393
*511 FILLER_11_405
*512 FILLER_11_417
*513 FILLER_11_429
*514 FILLER_11_441
*515 FILLER_11_447
*516 FILLER_11_449
*517 FILLER_11_461
*518 FILLER_11_47
*519 FILLER_11_473
*520 FILLER_11_485
*521 FILLER_11_497
*522 FILLER_11_503
*523 FILLER_11_505
*524 FILLER_11_513
*525 FILLER_11_55
*526 FILLER_11_57
*527 FILLER_11_69
*528 FILLER_11_81
*529 FILLER_11_93
*530 FILLER_12_109
*531 FILLER_12_121
*532 FILLER_12_133
*533 FILLER_12_139
*534 FILLER_12_141
*535 FILLER_12_15
*536 FILLER_12_153
*537 FILLER_12_165
*538 FILLER_12_177
*539 FILLER_12_189
*540 FILLER_12_195
*541 FILLER_12_197
*542 FILLER_12_209
*543 FILLER_12_221
*544 FILLER_12_233
*545 FILLER_12_245
*546 FILLER_12_251
*547 FILLER_12_253
*548 FILLER_12_265
*549 FILLER_12_27
*550 FILLER_12_277
*551 FILLER_12_289
*552 FILLER_12_3
*553 FILLER_12_301
*554 FILLER_12_307
*555 FILLER_12_309
*556 FILLER_12_321
*557 FILLER_12_333
*558 FILLER_12_345
*559 FILLER_12_357
*560 FILLER_12_363
*561 FILLER_12_365
*562 FILLER_12_377
*563 FILLER_12_389
*564 FILLER_12_401
*565 FILLER_12_413
*566 FILLER_12_419
*567 FILLER_12_421
*568 FILLER_12_433
*569 FILLER_12_445
*570 FILLER_12_457
*571 FILLER_12_469
*572 FILLER_12_475
*573 FILLER_12_477
*574 FILLER_12_489
*575 FILLER_12_50
*576 FILLER_12_512
*577 FILLER_12_62
*578 FILLER_12_74
*579 FILLER_12_82
*580 FILLER_12_85
*581 FILLER_12_97
*582 FILLER_13_105
*583 FILLER_13_111
*584 FILLER_13_113
*585 FILLER_13_125
*586 FILLER_13_137
*587 FILLER_13_149
*588 FILLER_13_15
*589 FILLER_13_161
*590 FILLER_13_167
*591 FILLER_13_169
*592 FILLER_13_181
*593 FILLER_13_193
*594 FILLER_13_205
*595 FILLER_13_217
*596 FILLER_13_223
*597 FILLER_13_225
*598 FILLER_13_237
*599 FILLER_13_249
*600 FILLER_13_261
*601 FILLER_13_27
*602 FILLER_13_273
*603 FILLER_13_279
*604 FILLER_13_281
*605 FILLER_13_293
*606 FILLER_13_3
*607 FILLER_13_305
*608 FILLER_13_31
*609 FILLER_13_317
*610 FILLER_13_329
*611 FILLER_13_335
*612 FILLER_13_337
*613 FILLER_13_349
*614 FILLER_13_361
*615 FILLER_13_373
*616 FILLER_13_385
*617 FILLER_13_391
*618 FILLER_13_393
*619 FILLER_13_405
*620 FILLER_13_417
*621 FILLER_13_429
*622 FILLER_13_43
*623 FILLER_13_441
*624 FILLER_13_447
*625 FILLER_13_449
*626 FILLER_13_461
*627 FILLER_13_473
*628 FILLER_13_485
*629 FILLER_13_497
*630 FILLER_13_503
*631 FILLER_13_505
*632 FILLER_13_512
*633 FILLER_13_55
*634 FILLER_13_57
*635 FILLER_13_69
*636 FILLER_13_81
*637 FILLER_13_93
*638 FILLER_14_109
*639 FILLER_14_121
*640 FILLER_14_133
*641 FILLER_14_139
*642 FILLER_14_141
*643 FILLER_14_15
*644 FILLER_14_153
*645 FILLER_14_165
*646 FILLER_14_177
*647 FILLER_14_189
*648 FILLER_14_195
*649 FILLER_14_197
*650 FILLER_14_209
*651 FILLER_14_221
*652 FILLER_14_233
*653 FILLER_14_245
*654 FILLER_14_251
*655 FILLER_14_253
*656 FILLER_14_265
*657 FILLER_14_27
*658 FILLER_14_277
*659 FILLER_14_289
*660 FILLER_14_29
*661 FILLER_14_3
*662 FILLER_14_301
*663 FILLER_14_307
*664 FILLER_14_309
*665 FILLER_14_321
*666 FILLER_14_333
*667 FILLER_14_345
*668 FILLER_14_357
*669 FILLER_14_363
*670 FILLER_14_365
*671 FILLER_14_377
*672 FILLER_14_389
*673 FILLER_14_401
*674 FILLER_14_41
*675 FILLER_14_413
*676 FILLER_14_419
*677 FILLER_14_421
*678 FILLER_14_433
*679 FILLER_14_445
*680 FILLER_14_457
*681 FILLER_14_469
*682 FILLER_14_475
*683 FILLER_14_477
*684 FILLER_14_489
*685 FILLER_14_501
*686 FILLER_14_512
*687 FILLER_14_53
*688 FILLER_14_65
*689 FILLER_14_77
*690 FILLER_14_83
*691 FILLER_14_85
*692 FILLER_14_97
*693 FILLER_15_105
*694 FILLER_15_111
*695 FILLER_15_113
*696 FILLER_15_125
*697 FILLER_15_137
*698 FILLER_15_149
*699 FILLER_15_15
*700 FILLER_15_161
*701 FILLER_15_167
*702 FILLER_15_169
*703 FILLER_15_181
*704 FILLER_15_193
*705 FILLER_15_205
*706 FILLER_15_217
*707 FILLER_15_223
*708 FILLER_15_225
*709 FILLER_15_237
*710 FILLER_15_249
*711 FILLER_15_261
*712 FILLER_15_27
*713 FILLER_15_273
*714 FILLER_15_279
*715 FILLER_15_281
*716 FILLER_15_293
*717 FILLER_15_3
*718 FILLER_15_305
*719 FILLER_15_317
*720 FILLER_15_329
*721 FILLER_15_335
*722 FILLER_15_337
*723 FILLER_15_349
*724 FILLER_15_361
*725 FILLER_15_373
*726 FILLER_15_385
*727 FILLER_15_39
*728 FILLER_15_391
*729 FILLER_15_393
*730 FILLER_15_405
*731 FILLER_15_417
*732 FILLER_15_429
*733 FILLER_15_441
*734 FILLER_15_447
*735 FILLER_15_449
*736 FILLER_15_461
*737 FILLER_15_473
*738 FILLER_15_485
*739 FILLER_15_497
*740 FILLER_15_503
*741 FILLER_15_505
*742 FILLER_15_51
*743 FILLER_15_512
*744 FILLER_15_55
*745 FILLER_15_57
*746 FILLER_15_69
*747 FILLER_15_81
*748 FILLER_15_93
*749 FILLER_16_109
*750 FILLER_16_121
*751 FILLER_16_133
*752 FILLER_16_139
*753 FILLER_16_141
*754 FILLER_16_15
*755 FILLER_16_153
*756 FILLER_16_165
*757 FILLER_16_177
*758 FILLER_16_189
*759 FILLER_16_195
*760 FILLER_16_197
*761 FILLER_16_209
*762 FILLER_16_221
*763 FILLER_16_233
*764 FILLER_16_245
*765 FILLER_16_251
*766 FILLER_16_253
*767 FILLER_16_265
*768 FILLER_16_27
*769 FILLER_16_277
*770 FILLER_16_289
*771 FILLER_16_29
*772 FILLER_16_3
*773 FILLER_16_301
*774 FILLER_16_307
*775 FILLER_16_309
*776 FILLER_16_321
*777 FILLER_16_333
*778 FILLER_16_345
*779 FILLER_16_357
*780 FILLER_16_363
*781 FILLER_16_365
*782 FILLER_16_377
*783 FILLER_16_389
*784 FILLER_16_401
*785 FILLER_16_41
*786 FILLER_16_413
*787 FILLER_16_419
*788 FILLER_16_421
*789 FILLER_16_433
*790 FILLER_16_445
*791 FILLER_16_457
*792 FILLER_16_469
*793 FILLER_16_475
*794 FILLER_16_477
*795 FILLER_16_489
*796 FILLER_16_512
*797 FILLER_16_53
*798 FILLER_16_65
*799 FILLER_16_77
*800 FILLER_16_83
*801 FILLER_16_85
*802 FILLER_16_97
*803 FILLER_17_105
*804 FILLER_17_111
*805 FILLER_17_113
*806 FILLER_17_125
*807 FILLER_17_137
*808 FILLER_17_149
*809 FILLER_17_15
*810 FILLER_17_161
*811 FILLER_17_167
*812 FILLER_17_169
*813 FILLER_17_181
*814 FILLER_17_193
*815 FILLER_17_205
*816 FILLER_17_217
*817 FILLER_17_223
*818 FILLER_17_225
*819 FILLER_17_237
*820 FILLER_17_249
*821 FILLER_17_261
*822 FILLER_17_27
*823 FILLER_17_273
*824 FILLER_17_279
*825 FILLER_17_281
*826 FILLER_17_293
*827 FILLER_17_3
*828 FILLER_17_305
*829 FILLER_17_317
*830 FILLER_17_329
*831 FILLER_17_335
*832 FILLER_17_337
*833 FILLER_17_349
*834 FILLER_17_361
*835 FILLER_17_373
*836 FILLER_17_385
*837 FILLER_17_39
*838 FILLER_17_391
*839 FILLER_17_393
*840 FILLER_17_405
*841 FILLER_17_417
*842 FILLER_17_429
*843 FILLER_17_441
*844 FILLER_17_447
*845 FILLER_17_449
*846 FILLER_17_461
*847 FILLER_17_473
*848 FILLER_17_485
*849 FILLER_17_497
*850 FILLER_17_503
*851 FILLER_17_505
*852 FILLER_17_51
*853 FILLER_17_510
*854 FILLER_17_55
*855 FILLER_17_57
*856 FILLER_17_69
*857 FILLER_17_81
*858 FILLER_17_93
*859 FILLER_18_109
*860 FILLER_18_121
*861 FILLER_18_133
*862 FILLER_18_139
*863 FILLER_18_141
*864 FILLER_18_15
*865 FILLER_18_153
*866 FILLER_18_165
*867 FILLER_18_177
*868 FILLER_18_189
*869 FILLER_18_195
*870 FILLER_18_197
*871 FILLER_18_209
*872 FILLER_18_221
*873 FILLER_18_233
*874 FILLER_18_245
*875 FILLER_18_251
*876 FILLER_18_253
*877 FILLER_18_265
*878 FILLER_18_27
*879 FILLER_18_277
*880 FILLER_18_289
*881 FILLER_18_29
*882 FILLER_18_3
*883 FILLER_18_301
*884 FILLER_18_307
*885 FILLER_18_309
*886 FILLER_18_321
*887 FILLER_18_333
*888 FILLER_18_345
*889 FILLER_18_357
*890 FILLER_18_363
*891 FILLER_18_365
*892 FILLER_18_377
*893 FILLER_18_389
*894 FILLER_18_401
*895 FILLER_18_41
*896 FILLER_18_413
*897 FILLER_18_419
*898 FILLER_18_421
*899 FILLER_18_433
*900 FILLER_18_445
*901 FILLER_18_457
*902 FILLER_18_469
*903 FILLER_18_475
*904 FILLER_18_477
*905 FILLER_18_489
*906 FILLER_18_501
*907 FILLER_18_513
*908 FILLER_18_53
*909 FILLER_18_65
*910 FILLER_18_77
*911 FILLER_18_83
*912 FILLER_18_85
*913 FILLER_18_97
*914 FILLER_19_105
*915 FILLER_19_111
*916 FILLER_19_113
*917 FILLER_19_125
*918 FILLER_19_137
*919 FILLER_19_149
*920 FILLER_19_15
*921 FILLER_19_161
*922 FILLER_19_167
*923 FILLER_19_169
*924 FILLER_19_181
*925 FILLER_19_193
*926 FILLER_19_205
*927 FILLER_19_217
*928 FILLER_19_223
*929 FILLER_19_225
*930 FILLER_19_237
*931 FILLER_19_249
*932 FILLER_19_261
*933 FILLER_19_27
*934 FILLER_19_273
*935 FILLER_19_279
*936 FILLER_19_281
*937 FILLER_19_293
*938 FILLER_19_3
*939 FILLER_19_305
*940 FILLER_19_317
*941 FILLER_19_329
*942 FILLER_19_335
*943 FILLER_19_337
*944 FILLER_19_349
*945 FILLER_19_361
*946 FILLER_19_373
*947 FILLER_19_385
*948 FILLER_19_39
*949 FILLER_19_391
*950 FILLER_19_393
*951 FILLER_19_405
*952 FILLER_19_417
*953 FILLER_19_429
*954 FILLER_19_441
*955 FILLER_19_447
*956 FILLER_19_449
*957 FILLER_19_461
*958 FILLER_19_473
*959 FILLER_19_485
*960 FILLER_19_497
*961 FILLER_19_503
*962 FILLER_19_505
*963 FILLER_19_51
*964 FILLER_19_512
*965 FILLER_19_55
*966 FILLER_19_57
*967 FILLER_19_69
*968 FILLER_19_81
*969 FILLER_19_93
*970 FILLER_1_101
*971 FILLER_1_109
*972 FILLER_1_113
*973 FILLER_1_125
*974 FILLER_1_137
*975 FILLER_1_149
*976 FILLER_1_15
*977 FILLER_1_161
*978 FILLER_1_167
*979 FILLER_1_169
*980 FILLER_1_177
*981 FILLER_1_182
*982 FILLER_1_207
*983 FILLER_1_215
*984 FILLER_1_220
*985 FILLER_1_246
*986 FILLER_1_254
*987 FILLER_1_27
*988 FILLER_1_276
*989 FILLER_1_281
*990 FILLER_1_293
*991 FILLER_1_298
*992 FILLER_1_3
*993 FILLER_1_323
*994 FILLER_1_330
*995 FILLER_1_337
*996 FILLER_1_349
*997 FILLER_1_361
*998 FILLER_1_373
*999 FILLER_1_385
*1000 FILLER_1_39
*1001 FILLER_1_391
*1002 FILLER_1_393
*1003 FILLER_1_405
*1004 FILLER_1_417
*1005 FILLER_1_423
*1006 FILLER_1_427
*1007 FILLER_1_439
*1008 FILLER_1_447
*1009 FILLER_1_449
*1010 FILLER_1_461
*1011 FILLER_1_473
*1012 FILLER_1_500
*1013 FILLER_1_505
*1014 FILLER_1_51
*1015 FILLER_1_510
*1016 FILLER_1_55
*1017 FILLER_1_57
*1018 FILLER_1_69
*1019 FILLER_1_81
*1020 FILLER_1_93
*1021 FILLER_1_97
*1022 FILLER_20_109
*1023 FILLER_20_121
*1024 FILLER_20_133
*1025 FILLER_20_139
*1026 FILLER_20_141
*1027 FILLER_20_15
*1028 FILLER_20_153
*1029 FILLER_20_165
*1030 FILLER_20_177
*1031 FILLER_20_189
*1032 FILLER_20_195
*1033 FILLER_20_197
*1034 FILLER_20_209
*1035 FILLER_20_221
*1036 FILLER_20_233
*1037 FILLER_20_245
*1038 FILLER_20_251
*1039 FILLER_20_253
*1040 FILLER_20_265
*1041 FILLER_20_27
*1042 FILLER_20_277
*1043 FILLER_20_289
*1044 FILLER_20_29
*1045 FILLER_20_3
*1046 FILLER_20_301
*1047 FILLER_20_307
*1048 FILLER_20_309
*1049 FILLER_20_321
*1050 FILLER_20_344
*1051 FILLER_20_356
*1052 FILLER_20_365
*1053 FILLER_20_377
*1054 FILLER_20_389
*1055 FILLER_20_401
*1056 FILLER_20_41
*1057 FILLER_20_413
*1058 FILLER_20_419
*1059 FILLER_20_421
*1060 FILLER_20_433
*1061 FILLER_20_445
*1062 FILLER_20_457
*1063 FILLER_20_469
*1064 FILLER_20_475
*1065 FILLER_20_477
*1066 FILLER_20_489
*1067 FILLER_20_501
*1068 FILLER_20_513
*1069 FILLER_20_53
*1070 FILLER_20_65
*1071 FILLER_20_77
*1072 FILLER_20_83
*1073 FILLER_20_85
*1074 FILLER_20_97
*1075 FILLER_21_105
*1076 FILLER_21_111
*1077 FILLER_21_113
*1078 FILLER_21_125
*1079 FILLER_21_137
*1080 FILLER_21_149
*1081 FILLER_21_15
*1082 FILLER_21_161
*1083 FILLER_21_167
*1084 FILLER_21_169
*1085 FILLER_21_181
*1086 FILLER_21_193
*1087 FILLER_21_205
*1088 FILLER_21_217
*1089 FILLER_21_223
*1090 FILLER_21_225
*1091 FILLER_21_237
*1092 FILLER_21_249
*1093 FILLER_21_261
*1094 FILLER_21_27
*1095 FILLER_21_273
*1096 FILLER_21_279
*1097 FILLER_21_281
*1098 FILLER_21_293
*1099 FILLER_21_3
*1100 FILLER_21_305
*1101 FILLER_21_317
*1102 FILLER_21_321
*1103 FILLER_21_328
*1104 FILLER_21_337
*1105 FILLER_21_349
*1106 FILLER_21_361
*1107 FILLER_21_373
*1108 FILLER_21_385
*1109 FILLER_21_39
*1110 FILLER_21_391
*1111 FILLER_21_393
*1112 FILLER_21_405
*1113 FILLER_21_417
*1114 FILLER_21_429
*1115 FILLER_21_441
*1116 FILLER_21_447
*1117 FILLER_21_449
*1118 FILLER_21_461
*1119 FILLER_21_473
*1120 FILLER_21_500
*1121 FILLER_21_505
*1122 FILLER_21_51
*1123 FILLER_21_513
*1124 FILLER_21_55
*1125 FILLER_21_57
*1126 FILLER_21_69
*1127 FILLER_21_81
*1128 FILLER_21_93
*1129 FILLER_22_109
*1130 FILLER_22_121
*1131 FILLER_22_129
*1132 FILLER_22_134
*1133 FILLER_22_141
*1134 FILLER_22_153
*1135 FILLER_22_165
*1136 FILLER_22_177
*1137 FILLER_22_189
*1138 FILLER_22_195
*1139 FILLER_22_197
*1140 FILLER_22_209
*1141 FILLER_22_221
*1142 FILLER_22_233
*1143 FILLER_22_24
*1144 FILLER_22_245
*1145 FILLER_22_251
*1146 FILLER_22_253
*1147 FILLER_22_257
*1148 FILLER_22_282
*1149 FILLER_22_29
*1150 FILLER_22_294
*1151 FILLER_22_306
*1152 FILLER_22_309
*1153 FILLER_22_319
*1154 FILLER_22_331
*1155 FILLER_22_343
*1156 FILLER_22_355
*1157 FILLER_22_363
*1158 FILLER_22_365
*1159 FILLER_22_377
*1160 FILLER_22_389
*1161 FILLER_22_401
*1162 FILLER_22_41
*1163 FILLER_22_413
*1164 FILLER_22_419
*1165 FILLER_22_421
*1166 FILLER_22_433
*1167 FILLER_22_445
*1168 FILLER_22_457
*1169 FILLER_22_469
*1170 FILLER_22_475
*1171 FILLER_22_477
*1172 FILLER_22_483
*1173 FILLER_22_495
*1174 FILLER_22_507
*1175 FILLER_22_515
*1176 FILLER_22_53
*1177 FILLER_22_65
*1178 FILLER_22_77
*1179 FILLER_22_83
*1180 FILLER_22_85
*1181 FILLER_22_97
*1182 FILLER_23_105
*1183 FILLER_23_111
*1184 FILLER_23_113
*1185 FILLER_23_125
*1186 FILLER_23_137
*1187 FILLER_23_149
*1188 FILLER_23_15
*1189 FILLER_23_161
*1190 FILLER_23_167
*1191 FILLER_23_169
*1192 FILLER_23_181
*1193 FILLER_23_193
*1194 FILLER_23_205
*1195 FILLER_23_217
*1196 FILLER_23_223
*1197 FILLER_23_225
*1198 FILLER_23_237
*1199 FILLER_23_249
*1200 FILLER_23_261
*1201 FILLER_23_27
*1202 FILLER_23_273
*1203 FILLER_23_279
*1204 FILLER_23_281
*1205 FILLER_23_293
*1206 FILLER_23_3
*1207 FILLER_23_305
*1208 FILLER_23_317
*1209 FILLER_23_329
*1210 FILLER_23_335
*1211 FILLER_23_337
*1212 FILLER_23_349
*1213 FILLER_23_361
*1214 FILLER_23_373
*1215 FILLER_23_385
*1216 FILLER_23_39
*1217 FILLER_23_391
*1218 FILLER_23_393
*1219 FILLER_23_405
*1220 FILLER_23_417
*1221 FILLER_23_429
*1222 FILLER_23_441
*1223 FILLER_23_447
*1224 FILLER_23_449
*1225 FILLER_23_461
*1226 FILLER_23_469
*1227 FILLER_23_475
*1228 FILLER_23_500
*1229 FILLER_23_505
*1230 FILLER_23_51
*1231 FILLER_23_513
*1232 FILLER_23_55
*1233 FILLER_23_57
*1234 FILLER_23_69
*1235 FILLER_23_81
*1236 FILLER_23_93
*1237 FILLER_24_109
*1238 FILLER_24_121
*1239 FILLER_24_133
*1240 FILLER_24_139
*1241 FILLER_24_141
*1242 FILLER_24_15
*1243 FILLER_24_153
*1244 FILLER_24_165
*1245 FILLER_24_177
*1246 FILLER_24_189
*1247 FILLER_24_195
*1248 FILLER_24_197
*1249 FILLER_24_209
*1250 FILLER_24_213
*1251 FILLER_24_235
*1252 FILLER_24_247
*1253 FILLER_24_251
*1254 FILLER_24_253
*1255 FILLER_24_265
*1256 FILLER_24_27
*1257 FILLER_24_277
*1258 FILLER_24_289
*1259 FILLER_24_29
*1260 FILLER_24_3
*1261 FILLER_24_301
*1262 FILLER_24_307
*1263 FILLER_24_309
*1264 FILLER_24_321
*1265 FILLER_24_333
*1266 FILLER_24_345
*1267 FILLER_24_357
*1268 FILLER_24_363
*1269 FILLER_24_365
*1270 FILLER_24_377
*1271 FILLER_24_389
*1272 FILLER_24_401
*1273 FILLER_24_41
*1274 FILLER_24_413
*1275 FILLER_24_419
*1276 FILLER_24_421
*1277 FILLER_24_433
*1278 FILLER_24_445
*1279 FILLER_24_457
*1280 FILLER_24_472
*1281 FILLER_24_498
*1282 FILLER_24_510
*1283 FILLER_24_53
*1284 FILLER_24_65
*1285 FILLER_24_77
*1286 FILLER_24_83
*1287 FILLER_24_85
*1288 FILLER_24_97
*1289 FILLER_25_105
*1290 FILLER_25_111
*1291 FILLER_25_113
*1292 FILLER_25_125
*1293 FILLER_25_137
*1294 FILLER_25_149
*1295 FILLER_25_15
*1296 FILLER_25_161
*1297 FILLER_25_167
*1298 FILLER_25_169
*1299 FILLER_25_181
*1300 FILLER_25_193
*1301 FILLER_25_205
*1302 FILLER_25_213
*1303 FILLER_25_218
*1304 FILLER_25_225
*1305 FILLER_25_237
*1306 FILLER_25_249
*1307 FILLER_25_261
*1308 FILLER_25_27
*1309 FILLER_25_273
*1310 FILLER_25_279
*1311 FILLER_25_281
*1312 FILLER_25_293
*1313 FILLER_25_3
*1314 FILLER_25_305
*1315 FILLER_25_317
*1316 FILLER_25_329
*1317 FILLER_25_335
*1318 FILLER_25_337
*1319 FILLER_25_349
*1320 FILLER_25_361
*1321 FILLER_25_373
*1322 FILLER_25_385
*1323 FILLER_25_39
*1324 FILLER_25_391
*1325 FILLER_25_393
*1326 FILLER_25_405
*1327 FILLER_25_417
*1328 FILLER_25_429
*1329 FILLER_25_441
*1330 FILLER_25_447
*1331 FILLER_25_449
*1332 FILLER_25_461
*1333 FILLER_25_473
*1334 FILLER_25_481
*1335 FILLER_25_485
*1336 FILLER_25_497
*1337 FILLER_25_503
*1338 FILLER_25_505
*1339 FILLER_25_51
*1340 FILLER_25_513
*1341 FILLER_25_55
*1342 FILLER_25_57
*1343 FILLER_25_69
*1344 FILLER_25_81
*1345 FILLER_25_93
*1346 FILLER_26_109
*1347 FILLER_26_121
*1348 FILLER_26_133
*1349 FILLER_26_139
*1350 FILLER_26_141
*1351 FILLER_26_15
*1352 FILLER_26_153
*1353 FILLER_26_165
*1354 FILLER_26_177
*1355 FILLER_26_189
*1356 FILLER_26_195
*1357 FILLER_26_197
*1358 FILLER_26_209
*1359 FILLER_26_213
*1360 FILLER_26_238
*1361 FILLER_26_250
*1362 FILLER_26_253
*1363 FILLER_26_265
*1364 FILLER_26_27
*1365 FILLER_26_277
*1366 FILLER_26_289
*1367 FILLER_26_29
*1368 FILLER_26_3
*1369 FILLER_26_301
*1370 FILLER_26_307
*1371 FILLER_26_309
*1372 FILLER_26_321
*1373 FILLER_26_333
*1374 FILLER_26_345
*1375 FILLER_26_357
*1376 FILLER_26_363
*1377 FILLER_26_365
*1378 FILLER_26_377
*1379 FILLER_26_389
*1380 FILLER_26_401
*1381 FILLER_26_41
*1382 FILLER_26_413
*1383 FILLER_26_419
*1384 FILLER_26_421
*1385 FILLER_26_433
*1386 FILLER_26_445
*1387 FILLER_26_457
*1388 FILLER_26_469
*1389 FILLER_26_475
*1390 FILLER_26_477
*1391 FILLER_26_489
*1392 FILLER_26_501
*1393 FILLER_26_513
*1394 FILLER_26_53
*1395 FILLER_26_65
*1396 FILLER_26_77
*1397 FILLER_26_83
*1398 FILLER_26_85
*1399 FILLER_26_97
*1400 FILLER_27_105
*1401 FILLER_27_111
*1402 FILLER_27_113
*1403 FILLER_27_125
*1404 FILLER_27_13
*1405 FILLER_27_137
*1406 FILLER_27_149
*1407 FILLER_27_161
*1408 FILLER_27_167
*1409 FILLER_27_169
*1410 FILLER_27_181
*1411 FILLER_27_193
*1412 FILLER_27_205
*1413 FILLER_27_217
*1414 FILLER_27_223
*1415 FILLER_27_225
*1416 FILLER_27_237
*1417 FILLER_27_249
*1418 FILLER_27_25
*1419 FILLER_27_261
*1420 FILLER_27_273
*1421 FILLER_27_279
*1422 FILLER_27_281
*1423 FILLER_27_293
*1424 FILLER_27_305
*1425 FILLER_27_317
*1426 FILLER_27_329
*1427 FILLER_27_335
*1428 FILLER_27_337
*1429 FILLER_27_349
*1430 FILLER_27_361
*1431 FILLER_27_37
*1432 FILLER_27_373
*1433 FILLER_27_385
*1434 FILLER_27_391
*1435 FILLER_27_393
*1436 FILLER_27_405
*1437 FILLER_27_417
*1438 FILLER_27_429
*1439 FILLER_27_441
*1440 FILLER_27_447
*1441 FILLER_27_449
*1442 FILLER_27_461
*1443 FILLER_27_473
*1444 FILLER_27_479
*1445 FILLER_27_483
*1446 FILLER_27_49
*1447 FILLER_27_495
*1448 FILLER_27_503
*1449 FILLER_27_505
*1450 FILLER_27_513
*1451 FILLER_27_55
*1452 FILLER_27_57
*1453 FILLER_27_69
*1454 FILLER_27_81
*1455 FILLER_27_93
*1456 FILLER_28_109
*1457 FILLER_28_121
*1458 FILLER_28_133
*1459 FILLER_28_139
*1460 FILLER_28_141
*1461 FILLER_28_15
*1462 FILLER_28_153
*1463 FILLER_28_165
*1464 FILLER_28_177
*1465 FILLER_28_189
*1466 FILLER_28_195
*1467 FILLER_28_197
*1468 FILLER_28_209
*1469 FILLER_28_221
*1470 FILLER_28_233
*1471 FILLER_28_245
*1472 FILLER_28_251
*1473 FILLER_28_253
*1474 FILLER_28_265
*1475 FILLER_28_27
*1476 FILLER_28_277
*1477 FILLER_28_289
*1478 FILLER_28_29
*1479 FILLER_28_3
*1480 FILLER_28_301
*1481 FILLER_28_307
*1482 FILLER_28_309
*1483 FILLER_28_321
*1484 FILLER_28_333
*1485 FILLER_28_345
*1486 FILLER_28_357
*1487 FILLER_28_363
*1488 FILLER_28_365
*1489 FILLER_28_377
*1490 FILLER_28_389
*1491 FILLER_28_401
*1492 FILLER_28_41
*1493 FILLER_28_413
*1494 FILLER_28_419
*1495 FILLER_28_421
*1496 FILLER_28_433
*1497 FILLER_28_445
*1498 FILLER_28_457
*1499 FILLER_28_469
*1500 FILLER_28_475
*1501 FILLER_28_477
*1502 FILLER_28_481
*1503 FILLER_28_503
*1504 FILLER_28_515
*1505 FILLER_28_53
*1506 FILLER_28_65
*1507 FILLER_28_77
*1508 FILLER_28_83
*1509 FILLER_28_85
*1510 FILLER_28_97
*1511 FILLER_29_105
*1512 FILLER_29_111
*1513 FILLER_29_113
*1514 FILLER_29_125
*1515 FILLER_29_137
*1516 FILLER_29_149
*1517 FILLER_29_15
*1518 FILLER_29_161
*1519 FILLER_29_167
*1520 FILLER_29_169
*1521 FILLER_29_181
*1522 FILLER_29_193
*1523 FILLER_29_205
*1524 FILLER_29_217
*1525 FILLER_29_223
*1526 FILLER_29_225
*1527 FILLER_29_237
*1528 FILLER_29_249
*1529 FILLER_29_261
*1530 FILLER_29_27
*1531 FILLER_29_273
*1532 FILLER_29_279
*1533 FILLER_29_281
*1534 FILLER_29_293
*1535 FILLER_29_3
*1536 FILLER_29_305
*1537 FILLER_29_317
*1538 FILLER_29_329
*1539 FILLER_29_335
*1540 FILLER_29_337
*1541 FILLER_29_349
*1542 FILLER_29_361
*1543 FILLER_29_373
*1544 FILLER_29_385
*1545 FILLER_29_39
*1546 FILLER_29_391
*1547 FILLER_29_393
*1548 FILLER_29_405
*1549 FILLER_29_417
*1550 FILLER_29_429
*1551 FILLER_29_441
*1552 FILLER_29_447
*1553 FILLER_29_452
*1554 FILLER_29_464
*1555 FILLER_29_476
*1556 FILLER_29_485
*1557 FILLER_29_497
*1558 FILLER_29_503
*1559 FILLER_29_505
*1560 FILLER_29_51
*1561 FILLER_29_513
*1562 FILLER_29_55
*1563 FILLER_29_57
*1564 FILLER_29_69
*1565 FILLER_29_81
*1566 FILLER_29_93
*1567 FILLER_2_119
*1568 FILLER_2_126
*1569 FILLER_2_138
*1570 FILLER_2_141
*1571 FILLER_2_15
*1572 FILLER_2_153
*1573 FILLER_2_165
*1574 FILLER_2_177
*1575 FILLER_2_185
*1576 FILLER_2_190
*1577 FILLER_2_197
*1578 FILLER_2_209
*1579 FILLER_2_221
*1580 FILLER_2_233
*1581 FILLER_2_238
*1582 FILLER_2_244
*1583 FILLER_2_248
*1584 FILLER_2_253
*1585 FILLER_2_260
*1586 FILLER_2_267
*1587 FILLER_2_27
*1588 FILLER_2_279
*1589 FILLER_2_29
*1590 FILLER_2_291
*1591 FILLER_2_3
*1592 FILLER_2_303
*1593 FILLER_2_307
*1594 FILLER_2_309
*1595 FILLER_2_333
*1596 FILLER_2_345
*1597 FILLER_2_357
*1598 FILLER_2_363
*1599 FILLER_2_365
*1600 FILLER_2_377
*1601 FILLER_2_389
*1602 FILLER_2_401
*1603 FILLER_2_41
*1604 FILLER_2_413
*1605 FILLER_2_419
*1606 FILLER_2_421
*1607 FILLER_2_445
*1608 FILLER_2_457
*1609 FILLER_2_469
*1610 FILLER_2_475
*1611 FILLER_2_477
*1612 FILLER_2_489
*1613 FILLER_2_512
*1614 FILLER_2_53
*1615 FILLER_2_65
*1616 FILLER_2_77
*1617 FILLER_2_83
*1618 FILLER_2_85
*1619 FILLER_2_97
*1620 FILLER_30_109
*1621 FILLER_30_121
*1622 FILLER_30_133
*1623 FILLER_30_139
*1624 FILLER_30_141
*1625 FILLER_30_153
*1626 FILLER_30_165
*1627 FILLER_30_177
*1628 FILLER_30_189
*1629 FILLER_30_19
*1630 FILLER_30_195
*1631 FILLER_30_197
*1632 FILLER_30_209
*1633 FILLER_30_238
*1634 FILLER_30_245
*1635 FILLER_30_251
*1636 FILLER_30_27
*1637 FILLER_30_274
*1638 FILLER_30_286
*1639 FILLER_30_29
*1640 FILLER_30_298
*1641 FILLER_30_306
*1642 FILLER_30_309
*1643 FILLER_30_321
*1644 FILLER_30_333
*1645 FILLER_30_345
*1646 FILLER_30_357
*1647 FILLER_30_363
*1648 FILLER_30_365
*1649 FILLER_30_377
*1650 FILLER_30_389
*1651 FILLER_30_401
*1652 FILLER_30_41
*1653 FILLER_30_413
*1654 FILLER_30_419
*1655 FILLER_30_421
*1656 FILLER_30_427
*1657 FILLER_30_449
*1658 FILLER_30_461
*1659 FILLER_30_473
*1660 FILLER_30_477
*1661 FILLER_30_489
*1662 FILLER_30_501
*1663 FILLER_30_512
*1664 FILLER_30_53