*SPEF "ieee 1481-1999"
*DESIGN "wrapped_counter"
*DATE "11:11:11 Fri 11 11, 1111"
*VENDOR "OpenRCX"
*PROGRAM "Parallel Extraction"
*VERSION "1.0"
*DESIGN_FLOW "NAME_SCOPE LOCAL" "PIN_CAP NONE"
*DIVIDER /
*DELIMITER :
*BUS_DELIMITER []
*T_UNIT 1 NS
*C_UNIT 1 PF
*R_UNIT 1 OHM
*L_UNIT 1 HENRY

*NAME_MAP
*1 active
*2 chip_pin_output_bit[0]
*3 chip_pin_output_bit[1]
*4 chip_pin_output_bit[2]
*5 chip_pin_output_bit[3]
*6 chip_pin_output_bit[4]
*7 chip_pin_output_bit[5]
*8 chip_pin_output_bit[6]
*9 chip_pin_output_bit[7]
*10 clk_blip
*11 io_in[0]
*12 io_in[10]
*13 io_in[11]
*14 io_in[12]
*15 io_in[13]
*16 io_in[14]
*17 io_in[15]
*18 io_in[16]
*19 io_in[17]
*20 io_in[18]
*21 io_in[19]
*22 io_in[1]
*23 io_in[20]
*24 io_in[21]
*25 io_in[22]
*26 io_in[23]
*27 io_in[24]
*28 io_in[25]
*29 io_in[26]
*30 io_in[27]
*31 io_in[28]
*32 io_in[29]
*33 io_in[2]
*34 io_in[30]
*35 io_in[31]
*36 io_in[32]
*37 io_in[33]
*38 io_in[34]
*39 io_in[35]
*40 io_in[36]
*41 io_in[37]
*42 io_in[3]
*43 io_in[4]
*44 io_in[5]
*45 io_in[6]
*46 io_in[7]
*47 io_in[8]
*48 io_in[9]
*49 io_oeb[0]
*50 io_oeb[10]
*51 io_oeb[11]
*52 io_oeb[12]
*53 io_oeb[13]
*54 io_oeb[14]
*55 io_oeb[15]
*56 io_oeb[16]
*57 io_oeb[17]
*58 io_oeb[18]
*59 io_oeb[19]
*60 io_oeb[1]
*61 io_oeb[20]
*62 io_oeb[21]
*63 io_oeb[22]
*64 io_oeb[23]
*65 io_oeb[24]
*66 io_oeb[25]
*67 io_oeb[26]
*68 io_oeb[27]
*69 io_oeb[28]
*70 io_oeb[29]
*71 io_oeb[2]
*72 io_oeb[30]
*73 io_oeb[31]
*74 io_oeb[32]
*75 io_oeb[33]
*76 io_oeb[34]
*77 io_oeb[35]
*78 io_oeb[36]
*79 io_oeb[37]
*80 io_oeb[3]
*81 io_oeb[4]
*82 io_oeb[5]
*83 io_oeb[6]
*84 io_oeb[7]
*85 io_oeb[8]
*86 io_oeb[9]
*87 io_out[0]
*88 io_out[10]
*89 io_out[11]
*90 io_out[12]
*91 io_out[13]
*92 io_out[14]
*93 io_out[15]
*94 io_out[16]
*95 io_out[17]
*96 io_out[18]
*97 io_out[19]
*98 io_out[1]
*99 io_out[20]
*100 io_out[21]
*101 io_out[22]
*102 io_out[23]
*103 io_out[24]
*104 io_out[25]
*105 io_out[26]
*106 io_out[27]
*107 io_out[28]
*108 io_out[29]
*109 io_out[2]
*110 io_out[30]
*111 io_out[31]
*112 io_out[32]
*113 io_out[33]
*114 io_out[34]
*115 io_out[35]
*116 io_out[36]
*117 io_out[37]
*118 io_out[3]
*119 io_out[4]
*120 io_out[5]
*121 io_out[6]
*122 io_out[7]
*123 io_out[8]
*124 io_out[9]
*127 wb_clk_i
*128 _000_
*129 _001_
*130 _002_
*131 _003_
*132 _004_
*133 _005_
*134 _006_
*135 _007_
*136 _008_
*137 _009_
*138 _010_
*139 _011_
*140 _012_
*141 _013_
*142 _014_
*143 _015_
*144 _016_
*145 _017_
*146 _018_
*147 _019_
*148 _020_
*149 _021_
*150 _022_
*151 _023_
*152 _024_
*153 _025_
*154 _026_
*155 _027_
*156 _028_
*157 _029_
*158 _030_
*159 _031_
*160 _032_
*161 _033_
*162 _034_
*163 _035_
*164 _036_
*165 _037_
*166 _038_
*167 _039_
*168 _040_
*169 _041_
*170 _042_
*171 _043_
*172 _044_
*173 _045_
*174 _046_
*175 _047_
*176 _048_
*177 _049_
*178 _050_
*179 _051_
*180 _052_
*181 _053_
*182 _054_
*183 _055_
*184 _056_
*185 _057_
*186 _058_
*187 _059_
*188 _060_
*189 _061_
*190 _062_
*191 _063_
*192 _064_
*193 _065_
*194 _066_
*195 _067_
*196 _068_
*197 _069_
*198 _070_
*199 _071_
*200 _072_
*201 _073_
*202 _074_
*203 _075_
*204 _076_
*205 _077_
*206 _078_
*207 _079_
*208 _080_
*209 _081_
*210 _082_
*211 _083_
*212 _084_
*213 _085_
*214 _086_
*215 _087_
*216 _088_
*217 _089_
*218 _090_
*219 _091_
*220 _092_
*221 _093_
*222 _094_
*223 _095_
*224 _096_
*225 _097_
*226 _098_
*227 _099_
*228 _100_
*229 _101_
*230 _102_
*231 _103_
*232 _104_
*233 _105_
*234 _106_
*235 _107_
*236 _108_
*237 _109_
*238 _110_
*239 _111_
*240 _112_
*241 _113_
*242 _114_
*243 _115_
*244 _116_
*245 _117_
*246 _118_
*247 _119_
*248 counter\.count\[0\]
*249 counter\.count\[1\]
*250 counter\.count\[2\]
*251 counter\.count\[3\]
*252 counter\.count\[4\]
*253 counter\.count\[5\]
*254 counter\.count\[6\]
*255 counter\.count\[7\]
*256 net1
*257 net10
*258 net11
*259 net12
*260 net13
*261 net14
*262 net15
*263 net16
*264 net17
*265 net18
*266 net19
*267 net2
*268 net20
*269 net21
*270 net22
*271 net23
*272 net24
*273 net25
*274 net26
*275 net27
*276 net28
*277 net29
*278 net3
*279 net30
*280 net31
*281 net32
*282 net33
*283 net34
*284 net35
*285 net36
*286 net37
*287 net38
*288 net39
*289 net4
*290 net40
*291 net41
*292 net42
*293 net43
*294 net44
*295 net45
*296 net46
*297 net47
*298 net48
*299 net49
*300 net5
*301 net50
*302 net51
*303 net52
*304 net53
*305 net54
*306 net55
*307 net56
*308 net57
*309 net58
*310 net59
*311 net6
*312 net60
*313 net61
*314 net62
*315 net63
*316 net64
*317 net65
*318 net66
*319 net67
*320 net68
*321 net69
*322 net7
*323 net70
*324 net71
*325 net72
*326 net73
*327 net74
*328 net8
*329 net9
*330 ANTENNA_0
*331 ANTENNA_1
*332 FILLER_0_106
*333 FILLER_0_113
*334 FILLER_0_135
*335 FILLER_0_139
*336 FILLER_0_141
*337 FILLER_0_164
*338 FILLER_0_169
*339 FILLER_0_192
*340 FILLER_0_197
*341 FILLER_0_220
*342 FILLER_0_225
*343 FILLER_0_24
*344 FILLER_0_248
*345 FILLER_0_253
*346 FILLER_0_276
*347 FILLER_0_29
*348 FILLER_0_302
*349 FILLER_0_330
*350 FILLER_0_358
*351 FILLER_0_386
*352 FILLER_0_414
*353 FILLER_0_442
*354 FILLER_0_470
*355 FILLER_0_498
*356 FILLER_0_508
*357 FILLER_0_52
*358 FILLER_0_57
*359 FILLER_0_80
*360 FILLER_10_103
*361 FILLER_10_110
*362 FILLER_10_122
*363 FILLER_10_13
*364 FILLER_10_134
*365 FILLER_10_141
*366 FILLER_10_153
*367 FILLER_10_165
*368 FILLER_10_17
*369 FILLER_10_177
*370 FILLER_10_189
*371 FILLER_10_195
*372 FILLER_10_197
*373 FILLER_10_209
*374 FILLER_10_221
*375 FILLER_10_233
*376 FILLER_10_245
*377 FILLER_10_25
*378 FILLER_10_251
*379 FILLER_10_253
*380 FILLER_10_265
*381 FILLER_10_277
*382 FILLER_10_289
*383 FILLER_10_29
*384 FILLER_10_3
*385 FILLER_10_301
*386 FILLER_10_307
*387 FILLER_10_309
*388 FILLER_10_321
*389 FILLER_10_333
*390 FILLER_10_345
*391 FILLER_10_357
*392 FILLER_10_363
*393 FILLER_10_365
*394 FILLER_10_377
*395 FILLER_10_389
*396 FILLER_10_401
*397 FILLER_10_41
*398 FILLER_10_413
*399 FILLER_10_419
*400 FILLER_10_421
*401 FILLER_10_433
*402 FILLER_10_445
*403 FILLER_10_457
*404 FILLER_10_469
*405 FILLER_10_475
*406 FILLER_10_477
*407 FILLER_10_489
*408 FILLER_10_497
*409 FILLER_10_501
*410 FILLER_10_508
*411 FILLER_10_53
*412 FILLER_10_57
*413 FILLER_10_63
*414 FILLER_10_67
*415 FILLER_10_75
*416 FILLER_10_80
*417 FILLER_10_85
*418 FILLER_10_89
*419 FILLER_10_9
*420 FILLER_10_93
*421 FILLER_10_98
*422 FILLER_11_108
*423 FILLER_11_113
*424 FILLER_11_125
*425 FILLER_11_137
*426 FILLER_11_149
*427 FILLER_11_161
*428 FILLER_11_167
*429 FILLER_11_169
*430 FILLER_11_181
*431 FILLER_11_193
*432 FILLER_11_205
*433 FILLER_11_21
*434 FILLER_11_217
*435 FILLER_11_223
*436 FILLER_11_225
*437 FILLER_11_237
*438 FILLER_11_249
*439 FILLER_11_261
*440 FILLER_11_273
*441 FILLER_11_279
*442 FILLER_11_281
*443 FILLER_11_293
*444 FILLER_11_3
*445 FILLER_11_305
*446 FILLER_11_317
*447 FILLER_11_329
*448 FILLER_11_33
*449 FILLER_11_335
*450 FILLER_11_337
*451 FILLER_11_349
*452 FILLER_11_361
*453 FILLER_11_373
*454 FILLER_11_385
*455 FILLER_11_391
*456 FILLER_11_393
*457 FILLER_11_405
*458 FILLER_11_417
*459 FILLER_11_429
*460 FILLER_11_441
*461 FILLER_11_447
*462 FILLER_11_449
*463 FILLER_11_45
*464 FILLER_11_461
*465 FILLER_11_473
*466 FILLER_11_485
*467 FILLER_11_497
*468 FILLER_11_503
*469 FILLER_11_505
*470 FILLER_11_511
*471 FILLER_11_515
*472 FILLER_11_53
*473 FILLER_11_57
*474 FILLER_11_69
*475 FILLER_11_74
*476 FILLER_11_78
*477 FILLER_11_82
*478 FILLER_11_89
*479 FILLER_11_9
*480 FILLER_11_96
*481 FILLER_12_103
*482 FILLER_12_115
*483 FILLER_12_123
*484 FILLER_12_127
*485 FILLER_12_139
*486 FILLER_12_141
*487 FILLER_12_15
*488 FILLER_12_153
*489 FILLER_12_165
*490 FILLER_12_177
*491 FILLER_12_189
*492 FILLER_12_195
*493 FILLER_12_197
*494 FILLER_12_209
*495 FILLER_12_221
*496 FILLER_12_233
*497 FILLER_12_245
*498 FILLER_12_251
*499 FILLER_12_253
*500 FILLER_12_265
*501 FILLER_12_27
*502 FILLER_12_277
*503 FILLER_12_289
*504 FILLER_12_29
*505 FILLER_12_3
*506 FILLER_12_301
*507 FILLER_12_307
*508 FILLER_12_309
*509 FILLER_12_321
*510 FILLER_12_333
*511 FILLER_12_345
*512 FILLER_12_357
*513 FILLER_12_363
*514 FILLER_12_365
*515 FILLER_12_377
*516 FILLER_12_389
*517 FILLER_12_401
*518 FILLER_12_41
*519 FILLER_12_413
*520 FILLER_12_419
*521 FILLER_12_421
*522 FILLER_12_433
*523 FILLER_12_445
*524 FILLER_12_457
*525 FILLER_12_469
*526 FILLER_12_475
*527 FILLER_12_477
*528 FILLER_12_489
*529 FILLER_12_501
*530 FILLER_12_513
*531 FILLER_12_53
*532 FILLER_12_65
*533 FILLER_12_77
*534 FILLER_12_83
*535 FILLER_12_85
*536 FILLER_12_97
*537 FILLER_13_105
*538 FILLER_13_111
*539 FILLER_13_113
*540 FILLER_13_125
*541 FILLER_13_137
*542 FILLER_13_149
*543 FILLER_13_15
*544 FILLER_13_161
*545 FILLER_13_167
*546 FILLER_13_169
*547 FILLER_13_181
*548 FILLER_13_193
*549 FILLER_13_205
*550 FILLER_13_217
*551 FILLER_13_223
*552 FILLER_13_225
*553 FILLER_13_237
*554 FILLER_13_249
*555 FILLER_13_261
*556 FILLER_13_27
*557 FILLER_13_273
*558 FILLER_13_279
*559 FILLER_13_281
*560 FILLER_13_293
*561 FILLER_13_3
*562 FILLER_13_305
*563 FILLER_13_317
*564 FILLER_13_329
*565 FILLER_13_335
*566 FILLER_13_337
*567 FILLER_13_349
*568 FILLER_13_361
*569 FILLER_13_373
*570 FILLER_13_385
*571 FILLER_13_39
*572 FILLER_13_391
*573 FILLER_13_393
*574 FILLER_13_405
*575 FILLER_13_417
*576 FILLER_13_429
*577 FILLER_13_441
*578 FILLER_13_447
*579 FILLER_13_449
*580 FILLER_13_461
*581 FILLER_13_473
*582 FILLER_13_485
*583 FILLER_13_497
*584 FILLER_13_503
*585 FILLER_13_505
*586 FILLER_13_51
*587 FILLER_13_513
*588 FILLER_13_55
*589 FILLER_13_57
*590 FILLER_13_69
*591 FILLER_13_81
*592 FILLER_13_93
*593 FILLER_14_109
*594 FILLER_14_121
*595 FILLER_14_133
*596 FILLER_14_139
*597 FILLER_14_141
*598 FILLER_14_15
*599 FILLER_14_153
*600 FILLER_14_165
*601 FILLER_14_177
*602 FILLER_14_189
*603 FILLER_14_195
*604 FILLER_14_197
*605 FILLER_14_209
*606 FILLER_14_221
*607 FILLER_14_233
*608 FILLER_14_245
*609 FILLER_14_251
*610 FILLER_14_253
*611 FILLER_14_265
*612 FILLER_14_27
*613 FILLER_14_277
*614 FILLER_14_289
*615 FILLER_14_29
*616 FILLER_14_3
*617 FILLER_14_301
*618 FILLER_14_307
*619 FILLER_14_309
*620 FILLER_14_321
*621 FILLER_14_333
*622 FILLER_14_345
*623 FILLER_14_357
*624 FILLER_14_363
*625 FILLER_14_365
*626 FILLER_14_377
*627 FILLER_14_389
*628 FILLER_14_401
*629 FILLER_14_41
*630 FILLER_14_413
*631 FILLER_14_419
*632 FILLER_14_421
*633 FILLER_14_433
*634 FILLER_14_445
*635 FILLER_14_457
*636 FILLER_14_469
*637 FILLER_14_475
*638 FILLER_14_477
*639 FILLER_14_489
*640 FILLER_14_501
*641 FILLER_14_513
*642 FILLER_14_53
*643 FILLER_14_65
*644 FILLER_14_77
*645 FILLER_14_83
*646 FILLER_14_85
*647 FILLER_14_97
*648 FILLER_15_105
*649 FILLER_15_111
*650 FILLER_15_113
*651 FILLER_15_125
*652 FILLER_15_137
*653 FILLER_15_149
*654 FILLER_15_15
*655 FILLER_15_161
*656 FILLER_15_167
*657 FILLER_15_169
*658 FILLER_15_181
*659 FILLER_15_193
*660 FILLER_15_205
*661 FILLER_15_217
*662 FILLER_15_223
*663 FILLER_15_225
*664 FILLER_15_237
*665 FILLER_15_249
*666 FILLER_15_261
*667 FILLER_15_27
*668 FILLER_15_273
*669 FILLER_15_279
*670 FILLER_15_281
*671 FILLER_15_293
*672 FILLER_15_3
*673 FILLER_15_305
*674 FILLER_15_317
*675 FILLER_15_329
*676 FILLER_15_335
*677 FILLER_15_337
*678 FILLER_15_349
*679 FILLER_15_361
*680 FILLER_15_373
*681 FILLER_15_385
*682 FILLER_15_39
*683 FILLER_15_391
*684 FILLER_15_393
*685 FILLER_15_405
*686 FILLER_15_417
*687 FILLER_15_429
*688 FILLER_15_441
*689 FILLER_15_447
*690 FILLER_15_449
*691 FILLER_15_461
*692 FILLER_15_473
*693 FILLER_15_485
*694 FILLER_15_497
*695 FILLER_15_503
*696 FILLER_15_505
*697 FILLER_15_51
*698 FILLER_15_513
*699 FILLER_15_55
*700 FILLER_15_57
*701 FILLER_15_69
*702 FILLER_15_81
*703 FILLER_15_93
*704 FILLER_16_109
*705 FILLER_16_121
*706 FILLER_16_133
*707 FILLER_16_139
*708 FILLER_16_141
*709 FILLER_16_15
*710 FILLER_16_153
*711 FILLER_16_165
*712 FILLER_16_177
*713 FILLER_16_189
*714 FILLER_16_195
*715 FILLER_16_197
*716 FILLER_16_209
*717 FILLER_16_221
*718 FILLER_16_233
*719 FILLER_16_245
*720 FILLER_16_251
*721 FILLER_16_253
*722 FILLER_16_265
*723 FILLER_16_27
*724 FILLER_16_277
*725 FILLER_16_289
*726 FILLER_16_29
*727 FILLER_16_3
*728 FILLER_16_301
*729 FILLER_16_307
*730 FILLER_16_309
*731 FILLER_16_321
*732 FILLER_16_333
*733 FILLER_16_345
*734 FILLER_16_357
*735 FILLER_16_363
*736 FILLER_16_365
*737 FILLER_16_377
*738 FILLER_16_389
*739 FILLER_16_401
*740 FILLER_16_41
*741 FILLER_16_413
*742 FILLER_16_419
*743 FILLER_16_421
*744 FILLER_16_433
*745 FILLER_16_445
*746 FILLER_16_457
*747 FILLER_16_469
*748 FILLER_16_475
*749 FILLER_16_477
*750 FILLER_16_489
*751 FILLER_16_501
*752 FILLER_16_513
*753 FILLER_16_53
*754 FILLER_16_65
*755 FILLER_16_77
*756 FILLER_16_83
*757 FILLER_16_85
*758 FILLER_16_97
*759 FILLER_17_105
*760 FILLER_17_111
*761 FILLER_17_113
*762 FILLER_17_125
*763 FILLER_17_137
*764 FILLER_17_149
*765 FILLER_17_15
*766 FILLER_17_161
*767 FILLER_17_167
*768 FILLER_17_169
*769 FILLER_17_181
*770 FILLER_17_193
*771 FILLER_17_205
*772 FILLER_17_217
*773 FILLER_17_223
*774 FILLER_17_225
*775 FILLER_17_237
*776 FILLER_17_249
*777 FILLER_17_261
*778 FILLER_17_27
*779 FILLER_17_273
*780 FILLER_17_279
*781 FILLER_17_281
*782 FILLER_17_293
*783 FILLER_17_3
*784 FILLER_17_305
*785 FILLER_17_317
*786 FILLER_17_329
*787 FILLER_17_335
*788 FILLER_17_337
*789 FILLER_17_349
*790 FILLER_17_361
*791 FILLER_17_373
*792 FILLER_17_385
*793 FILLER_17_39
*794 FILLER_17_391
*795 FILLER_17_393
*796 FILLER_17_405
*797 FILLER_17_417
*798 FILLER_17_429
*799 FILLER_17_441
*800 FILLER_17_447
*801 FILLER_17_449
*802 FILLER_17_461
*803 FILLER_17_473
*804 FILLER_17_485
*805 FILLER_17_497
*806 FILLER_17_503
*807 FILLER_17_505
*808 FILLER_17_51
*809 FILLER_17_513
*810 FILLER_17_55
*811 FILLER_17_57
*812 FILLER_17_69
*813 FILLER_17_81
*814 FILLER_17_93
*815 FILLER_18_109
*816 FILLER_18_121
*817 FILLER_18_133
*818 FILLER_18_139
*819 FILLER_18_141
*820 FILLER_18_15
*821 FILLER_18_153
*822 FILLER_18_165
*823 FILLER_18_177
*824 FILLER_18_189
*825 FILLER_18_195
*826 FILLER_18_197
*827 FILLER_18_209
*828 FILLER_18_221
*829 FILLER_18_233
*830 FILLER_18_245
*831 FILLER_18_251
*832 FILLER_18_253
*833 FILLER_18_265
*834 FILLER_18_27
*835 FILLER_18_277
*836 FILLER_18_289
*837 FILLER_18_29
*838 FILLER_18_3
*839 FILLER_18_301
*840 FILLER_18_307
*841 FILLER_18_309
*842 FILLER_18_321
*843 FILLER_18_333
*844 FILLER_18_345
*845 FILLER_18_357
*846 FILLER_18_363
*847 FILLER_18_365
*848 FILLER_18_377
*849 FILLER_18_389
*850 FILLER_18_401
*851 FILLER_18_41
*852 FILLER_18_413
*853 FILLER_18_419
*854 FILLER_18_421
*855 FILLER_18_433
*856 FILLER_18_445
*857 FILLER_18_457
*858 FILLER_18_469
*859 FILLER_18_475
*860 FILLER_18_477
*861 FILLER_18_489
*862 FILLER_18_501
*863 FILLER_18_513
*864 FILLER_18_53
*865 FILLER_18_65
*866 FILLER_18_77
*867 FILLER_18_83
*868 FILLER_18_85
*869 FILLER_18_97
*870 FILLER_19_105
*871 FILLER_19_111
*872 FILLER_19_113
*873 FILLER_19_125
*874 FILLER_19_137
*875 FILLER_19_149
*876 FILLER_19_15
*877 FILLER_19_161
*878 FILLER_19_167
*879 FILLER_19_169
*880 FILLER_19_181
*881 FILLER_19_193
*882 FILLER_19_205
*883 FILLER_19_217
*884 FILLER_19_223
*885 FILLER_19_225
*886 FILLER_19_237
*887 FILLER_19_249
*888 FILLER_19_261
*889 FILLER_19_27
*890 FILLER_19_273
*891 FILLER_19_279
*892 FILLER_19_281
*893 FILLER_19_293
*894 FILLER_19_3
*895 FILLER_19_305
*896 FILLER_19_317
*897 FILLER_19_329
*898 FILLER_19_335
*899 FILLER_19_337
*900 FILLER_19_349
*901 FILLER_19_361
*902 FILLER_19_373
*903 FILLER_19_385
*904 FILLER_19_39
*905 FILLER_19_391
*906 FILLER_19_393
*907 FILLER_19_405
*908 FILLER_19_417
*909 FILLER_19_429
*910 FILLER_19_441
*911 FILLER_19_447
*912 FILLER_19_449
*913 FILLER_19_461
*914 FILLER_19_473
*915 FILLER_19_485
*916 FILLER_19_497
*917 FILLER_19_503
*918 FILLER_19_505
*919 FILLER_19_51
*920 FILLER_19_513
*921 FILLER_19_55
*922 FILLER_19_57
*923 FILLER_19_69
*924 FILLER_19_81
*925 FILLER_19_93
*926 FILLER_1_108
*927 FILLER_1_113
*928 FILLER_1_117
*929 FILLER_1_139
*930 FILLER_1_164
*931 FILLER_1_169
*932 FILLER_1_173
*933 FILLER_1_195
*934 FILLER_1_220
*935 FILLER_1_225
*936 FILLER_1_229
*937 FILLER_1_251
*938 FILLER_1_27
*939 FILLER_1_276
*940 FILLER_1_3
*941 FILLER_1_302
*942 FILLER_1_327
*943 FILLER_1_335
*944 FILLER_1_358
*945 FILLER_1_383
*946 FILLER_1_391
*947 FILLER_1_414
*948 FILLER_1_439
*949 FILLER_1_447
*950 FILLER_1_470
*951 FILLER_1_495
*952 FILLER_1_503
*953 FILLER_1_508
*954 FILLER_1_52
*955 FILLER_1_57
*956 FILLER_1_61
*957 FILLER_1_83
*958 FILLER_20_109
*959 FILLER_20_121
*960 FILLER_20_133
*961 FILLER_20_139
*962 FILLER_20_141
*963 FILLER_20_15
*964 FILLER_20_153
*965 FILLER_20_165
*966 FILLER_20_177
*967 FILLER_20_189
*968 FILLER_20_195
*969 FILLER_20_197
*970 FILLER_20_209
*971 FILLER_20_221
*972 FILLER_20_233
*973 FILLER_20_245
*974 FILLER_20_251
*975 FILLER_20_253
*976 FILLER_20_265
*977 FILLER_20_27
*978 FILLER_20_277
*979 FILLER_20_289
*980 FILLER_20_29
*981 FILLER_20_3
*982 FILLER_20_301
*983 FILLER_20_307
*984 FILLER_20_309
*985 FILLER_20_321
*986 FILLER_20_333
*987 FILLER_20_345
*988 FILLER_20_357
*989 FILLER_20_363
*990 FILLER_20_365
*991 FILLER_20_377
*992 FILLER_20_389
*993 FILLER_20_401
*994 FILLER_20_41
*995 FILLER_20_413
*996 FILLER_20_419
*997 FILLER_20_421
*998 FILLER_20_433
*999 FILLER_20_445
*1000 FILLER_20_457
*1001 FILLER_20_469
*1002 FILLER_20_475
*1003 FILLER_20_477
*1004 FILLER_20_489
*1005 FILLER_20_501
*1006 FILLER_20_513
*1007 FILLER_20_53
*1008 FILLER_20_65
*1009 FILLER_20_77
*1010 FILLER_20_83
*1011 FILLER_20_85
*1012 FILLER_20_97
*1013 FILLER_21_105
*1014 FILLER_21_111
*1015 FILLER_21_113
*1016 FILLER_21_125
*1017 FILLER_21_137
*1018 FILLER_21_149
*1019 FILLER_21_15
*1020 FILLER_21_161
*1021 FILLER_21_167
*1022 FILLER_21_169
*1023 FILLER_21_181
*1024 FILLER_21_193
*1025 FILLER_21_205
*1026 FILLER_21_217
*1027 FILLER_21_223
*1028 FILLER_21_225
*1029 FILLER_21_237
*1030 FILLER_21_249
*1031 FILLER_21_261
*1032 FILLER_21_27
*1033 FILLER_21_273
*1034 FILLER_21_279
*1035 FILLER_21_281
*1036 FILLER_21_293
*1037 FILLER_21_3
*1038 FILLER_21_305
*1039 FILLER_21_317
*1040 FILLER_21_329
*1041 FILLER_21_335
*1042 FILLER_21_337
*1043 FILLER_21_349
*1044 FILLER_21_361
*1045 FILLER_21_373
*1046 FILLER_21_385
*1047 FILLER_21_39
*1048 FILLER_21_391
*1049 FILLER_21_393
*1050 FILLER_21_405
*1051 FILLER_21_417
*1052 FILLER_21_429
*1053 FILLER_21_441
*1054 FILLER_21_447
*1055 FILLER_21_449
*1056 FILLER_21_461
*1057 FILLER_21_473
*1058 FILLER_21_485
*1059 FILLER_21_497
*1060 FILLER_21_503
*1061 FILLER_21_505
*1062 FILLER_21_51
*1063 FILLER_21_513
*1064 FILLER_21_55
*1065 FILLER_21_57
*1066 FILLER_21_69
*1067 FILLER_21_81
*1068 FILLER_21_93
*1069 FILLER_22_109
*1070 FILLER_22_121
*1071 FILLER_22_133
*1072 FILLER_22_139
*1073 FILLER_22_141
*1074 FILLER_22_15
*1075 FILLER_22_153
*1076 FILLER_22_165
*1077 FILLER_22_177
*1078 FILLER_22_189
*1079 FILLER_22_195
*1080 FILLER_22_197
*1081 FILLER_22_209
*1082 FILLER_22_221
*1083 FILLER_22_233
*1084 FILLER_22_245
*1085 FILLER_22_251
*1086 FILLER_22_253
*1087 FILLER_22_265
*1088 FILLER_22_27
*1089 FILLER_22_277
*1090 FILLER_22_289
*1091 FILLER_22_29
*1092 FILLER_22_3
*1093 FILLER_22_301
*1094 FILLER_22_307
*1095 FILLER_22_309
*1096 FILLER_22_321
*1097 FILLER_22_333
*1098 FILLER_22_345
*1099 FILLER_22_357
*1100 FILLER_22_363
*1101 FILLER_22_365
*1102 FILLER_22_377
*1103 FILLER_22_389
*1104 FILLER_22_401
*1105 FILLER_22_41
*1106 FILLER_22_413
*1107 FILLER_22_419
*1108 FILLER_22_421
*1109 FILLER_22_433
*1110 FILLER_22_445
*1111 FILLER_22_457
*1112 FILLER_22_469
*1113 FILLER_22_475
*1114 FILLER_22_477
*1115 FILLER_22_489
*1116 FILLER_22_501
*1117 FILLER_22_513
*1118 FILLER_22_53
*1119 FILLER_22_65
*1120 FILLER_22_77
*1121 FILLER_22_83
*1122 FILLER_22_85
*1123 FILLER_22_97
*1124 FILLER_23_105
*1125 FILLER_23_111
*1126 FILLER_23_113
*1127 FILLER_23_125
*1128 FILLER_23_137
*1129 FILLER_23_149
*1130 FILLER_23_15
*1131 FILLER_23_161
*1132 FILLER_23_167
*1133 FILLER_23_169
*1134 FILLER_23_181
*1135 FILLER_23_193
*1136 FILLER_23_205
*1137 FILLER_23_217
*1138 FILLER_23_223
*1139 FILLER_23_225
*1140 FILLER_23_237
*1141 FILLER_23_249
*1142 FILLER_23_261
*1143 FILLER_23_27
*1144 FILLER_23_273
*1145 FILLER_23_279
*1146 FILLER_23_281
*1147 FILLER_23_293
*1148 FILLER_23_3
*1149 FILLER_23_305
*1150 FILLER_23_317
*1151 FILLER_23_329
*1152 FILLER_23_335
*1153 FILLER_23_337
*1154 FILLER_23_349
*1155 FILLER_23_361
*1156 FILLER_23_373
*1157 FILLER_23_385
*1158 FILLER_23_39
*1159 FILLER_23_391
*1160 FILLER_23_393
*1161 FILLER_23_405
*1162 FILLER_23_417
*1163 FILLER_23_429
*1164 FILLER_23_441
*1165 FILLER_23_447
*1166 FILLER_23_449
*1167 FILLER_23_461
*1168 FILLER_23_473
*1169 FILLER_23_485
*1170 FILLER_23_497
*1171 FILLER_23_503
*1172 FILLER_23_505
*1173 FILLER_23_51
*1174 FILLER_23_513
*1175 FILLER_23_55
*1176 FILLER_23_57
*1177 FILLER_23_69
*1178 FILLER_23_81
*1179 FILLER_23_93
*1180 FILLER_24_109
*1181 FILLER_24_121
*1182 FILLER_24_133
*1183 FILLER_24_139
*1184 FILLER_24_141
*1185 FILLER_24_15
*1186 FILLER_24_153
*1187 FILLER_24_165
*1188 FILLER_24_177
*1189 FILLER_24_189
*1190 FILLER_24_195
*1191 FILLER_24_197
*1192 FILLER_24_209
*1193 FILLER_24_221
*1194 FILLER_24_233
*1195 FILLER_24_245
*1196 FILLER_24_251
*1197 FILLER_24_253
*1198 FILLER_24_265
*1199 FILLER_24_27
*1200 FILLER_24_277
*1201 FILLER_24_289
*1202 FILLER_24_29
*1203 FILLER_24_3
*1204 FILLER_24_301
*1205 FILLER_24_307
*1206 FILLER_24_309
*1207 FILLER_24_321
*1208 FILLER_24_333
*1209 FILLER_24_345
*1210 FILLER_24_357
*1211 FILLER_24_363
*1212 FILLER_24_365
*1213 FILLER_24_377
*1214 FILLER_24_389
*1215 FILLER_24_401
*1216 FILLER_24_41
*1217 FILLER_24_413
*1218 FILLER_24_419
*1219 FILLER_24_421
*1220 FILLER_24_433
*1221 FILLER_24_445
*1222 FILLER_24_457
*1223 FILLER_24_469
*1224 FILLER_24_475
*1225 FILLER_24_477
*1226 FILLER_24_489
*1227 FILLER_24_501
*1228 FILLER_24_513
*1229 FILLER_24_53
*1230 FILLER_24_65
*1231 FILLER_24_77
*1232 FILLER_24_83
*1233 FILLER_24_85
*1234 FILLER_24_97
*1235 FILLER_25_105
*1236 FILLER_25_111
*1237 FILLER_25_113
*1238 FILLER_25_125
*1239 FILLER_25_137
*1240 FILLER_25_149
*1241 FILLER_25_15
*1242 FILLER_25_161
*1243 FILLER_25_167
*1244 FILLER_25_169
*1245 FILLER_25_181
*1246 FILLER_25_193
*1247 FILLER_25_205
*1248 FILLER_25_217
*1249 FILLER_25_223
*1250 FILLER_25_225
*1251 FILLER_25_237
*1252 FILLER_25_249
*1253 FILLER_25_261
*1254 FILLER_25_27
*1255 FILLER_25_273
*1256 FILLER_25_279
*1257 FILLER_25_281
*1258 FILLER_25_293
*1259 FILLER_25_3
*1260 FILLER_25_305
*1261 FILLER_25_317
*1262 FILLER_25_329
*1263 FILLER_25_335
*1264 FILLER_25_337
*1265 FILLER_25_349
*1266 FILLER_25_361
*1267 FILLER_25_373
*1268 FILLER_25_385
*1269 FILLER_25_39
*1270 FILLER_25_391
*1271 FILLER_25_393
*1272 FILLER_25_405
*1273 FILLER_25_417
*1274 FILLER_25_429
*1275 FILLER_25_441
*1276 FILLER_25_447
*1277 FILLER_25_449
*1278 FILLER_25_461
*1279 FILLER_25_473
*1280 FILLER_25_485
*1281 FILLER_25_497
*1282 FILLER_25_503
*1283 FILLER_25_505
*1284 FILLER_25_51
*1285 FILLER_25_513
*1286 FILLER_25_55
*1287 FILLER_25_57
*1288 FILLER_25_69
*1289 FILLER_25_81
*1290 FILLER_25_93
*1291 FILLER_26_109
*1292 FILLER_26_121
*1293 FILLER_26_133
*1294 FILLER_26_139
*1295 FILLER_26_141
*1296 FILLER_26_15
*1297 FILLER_26_153
*1298 FILLER_26_165
*1299 FILLER_26_177
*1300 FILLER_26_189
*1301 FILLER_26_195
*1302 FILLER_26_197
*1303 FILLER_26_209
*1304 FILLER_26_221
*1305 FILLER_26_233
*1306 FILLER_26_245
*1307 FILLER_26_251
*1308 FILLER_26_253
*1309 FILLER_26_265
*1310 FILLER_26_27
*1311 FILLER_26_277
*1312 FILLER_26_289
*1313 FILLER_26_29
*1314 FILLER_26_3
*1315 FILLER_26_301
*1316 FILLER_26_307
*1317 FILLER_26_309
*1318 FILLER_26_321
*1319 FILLER_26_333
*1320 FILLER_26_345
*1321 FILLER_26_357
*1322 FILLER_26_363
*1323 FILLER_26_365
*1324 FILLER_26_377
*1325 FILLER_26_389
*1326 FILLER_26_401
*1327 FILLER_26_41
*1328 FILLER_26_413
*1329 FILLER_26_419
*1330 FILLER_26_421
*1331 FILLER_26_433
*1332 FILLER_26_445
*1333 FILLER_26_457
*1334 FILLER_26_469
*1335 FILLER_26_475
*1336 FILLER_26_477
*1337 FILLER_26_489
*1338 FILLER_26_501
*1339 FILLER_26_513
*1340 FILLER_26_53
*1341 FILLER_26_65
*1342 FILLER_26_77
*1343 FILLER_26_83
*1344 FILLER_26_85
*1345 FILLER_26_97
*1346 FILLER_27_105
*1347 FILLER_27_111
*1348 FILLER_27_113
*1349 FILLER_27_125
*1350 FILLER_27_137
*1351 FILLER_27_149
*1352 FILLER_27_15
*1353 FILLER_27_161
*1354 FILLER_27_167
*1355 FILLER_27_169
*1356 FILLER_27_181
*1357 FILLER_27_193
*1358 FILLER_27_205
*1359 FILLER_27_217
*1360 FILLER_27_223
*1361 FILLER_27_225
*1362 FILLER_27_237
*1363 FILLER_27_249
*1364 FILLER_27_261
*1365 FILLER_27_27
*1366 FILLER_27_273
*1367 FILLER_27_279
*1368 FILLER_27_281
*1369 FILLER_27_293
*1370 FILLER_27_3
*1371 FILLER_27_305
*1372 FILLER_27_317
*1373 FILLER_27_329
*1374 FILLER_27_335
*1375 FILLER_27_337
*1376 FILLER_27_349
*1377 FILLER_27_361
*1378 FILLER_27_373
*1379 FILLER_27_385
*1380 FILLER_27_39
*1381 FILLER_27_391
*1382 FILLER_27_393
*1383 FILLER_27_405
*1384 FILLER_27_417
*1385 FILLER_27_429
*1386 FILLER_27_441
*1387 FILLER_27_447
*1388 FILLER_27_449
*1389 FILLER_27_461
*1390 FILLER_27_473
*1391 FILLER_27_485
*1392 FILLER_27_497
*1393 FILLER_27_503
*1394 FILLER_27_505
*1395 FILLER_27_51
*1396 FILLER_27_513
*1397 FILLER_27_55
*1398 FILLER_27_57
*1399 FILLER_27_69
*1400 FILLER_27_81
*1401 FILLER_27_93
*1402 FILLER_28_109
*1403 FILLER_28_121
*1404 FILLER_28_133
*1405 FILLER_28_139
*1406 FILLER_28_141
*1407 FILLER_28_15
*1408 FILLER_28_153
*1409 FILLER_28_165
*1410 FILLER_28_177
*1411 FILLER_28_189
*1412 FILLER_28_195
*1413 FILLER_28_197
*1414 FILLER_28_209
*1415 FILLER_28_221
*1416 FILLER_28_233
*1417 FILLER_28_245
*1418 FILLER_28_251
*1419 FILLER_28_253
*1420 FILLER_28_265
*1421 FILLER_28_27
*1422 FILLER_28_277
*1423 FILLER_28_289
*1424 FILLER_28_29
*1425 FILLER_28_3
*1426 FILLER_28_301
*1427 FILLER_28_307
*1428 FILLER_28_309
*1429 FILLER_28_321
*1430 FILLER_28_333
*1431 FILLER_28_345
*1432 FILLER_28_357
*1433 FILLER_28_363
*1434 FILLER_28_365
*1435 FILLER_28_377
*1436 FILLER_28_389
*1437 FILLER_28_401
*1438 FILLER_28_41
*1439 FILLER_28_413
*1440 FILLER_28_419
*1441 FILLER_28_421
*1442 FILLER_28_433
*1443 FILLER_28_445
*1444 FILLER_28_457
*1445 FILLER_28_469
*1446 FILLER_28_475
*1447 FILLER_28_477
*1448 FILLER_28_489
*1449 FILLER_28_501
*1450 FILLER_28_513
*1451 FILLER_28_53
*1452 FILLER_28_65
*1453 FILLER_28_77
*1454 FILLER_28_83
*1455 FILLER_28_85
*1456 FILLER_28_97
*1457 FILLER_29_105
*1458 FILLER_29_111
*1459 FILLER_29_113
*1460 FILLER_29_125
*1461 FILLER_29_137
*1462 FILLER_29_149
*1463 FILLER_29_15
*1464 FILLER_29_161
*1465 FILLER_29_167
*1466 FILLER_29_169
*1467 FILLER_29_181
*1468 FILLER_29_193
*1469 FILLER_29_205
*1470 FILLER_29_217
*1471 FILLER_29_223
*1472 FILLER_29_225
*1473 FILLER_29_237
*1474 FILLER_29_249
*1475 FILLER_29_261
*1476 FILLER_29_27
*1477 FILLER_29_273
*1478 FILLER_29_279
*1479 FILLER_29_281
*1480 FILLER_29_293
*1481 FILLER_29_3
*1482 FILLER_29_305
*1483 FILLER_29_317
*1484 FILLER_29_329
*1485 FILLER_29_335
*1486 FILLER_29_337
*1487 FILLER_29_349
*1488 FILLER_29_361
*1489 FILLER_29_373
*1490 FILLER_29_385
*1491 FILLER_29_39
*1492 FILLER_29_391
*1493 FILLER_29_393
*1494 FILLER_29_405
*1495 FILLER_29_417
*1496 FILLER_29_429
*1497 FILLER_29_441
*1498 FILLER_29_447
*1499 FILLER_29_449
*1500 FILLER_29_461
*1501 FILLER_29_473
*1502 FILLER_29_485
*1503 FILLER_29_497
*1504 FILLER_29_503
*1505 FILLER_29_505
*1506 FILLER_29_51
*1507 FILLER_29_513
*1508 FILLER_29_55
*1509 FILLER_29_57
*1510 FILLER_29_69
*1511 FILLER_29_81
*1512 FILLER_29_93
*1513 FILLER_2_106
*1514 FILLER_2_131
*1515 FILLER_2_139
*1516 FILLER_2_141
*1517 FILLER_2_163
*1518 FILLER_2_188
*1519 FILLER_2_218
*1520 FILLER_2_222
*1521 FILLER_2_24
*1522 FILLER_2_244
*1523 FILLER_2_253
*1524 FILLER_2_262
*1525 FILLER_2_266
*1526 FILLER_2_288
*1527 FILLER_2_29
*1528 FILLER_2_295
*1529 FILLER_2_302
*1530 FILLER_2_33
*1531 FILLER_2_330
*1532 FILLER_2_355
*1533 FILLER_2_363
*1534 FILLER_2_386
*1535 FILLER_2_411
*1536 FILLER_2_419
*1537 FILLER_2_442
*1538 FILLER_2_467
*1539 FILLER_2_475
*1540 FILLER_2_498
*1541 FILLER_2_505
*1542 FILLER_2_512
*1543 FILLER_2_55
*1544 FILLER_2_80
*1545 FILLER_30_109
*1546 FILLER_30_121
*1547 FILLER_30_133
*1548 FILLER_30_139
*1549 FILLER_30_141
*1550 FILLER_30_15
*1551 FILLER_30_153
*1552 FILLER_30_165
*1553 FILLER_30_177
*1554 FILLER_30_189
*1555 FILLER_30_195
*1556 FILLER_30_197
*1557 FILLER_30_209
*1558 FILLER_30_221
*1559 FILLER_30_233
*1560 FILLER_30_245
*1561 FILLER_30_251
*1562 FILLER_30_253
*1563 FILLER_30_265
*1564 FILLER_30_27
*1565 FILLER_30_277
*1566 FILLER_30_289
*1567 FILLER_30_29
*1568 FILLER_30_3
*1569 FILLER_30_301
*1570 FILLER_30_307
*1571 FILLER_30_309
*1572 FILLER_30_321
*1573 FILLER_30_333
*1574 FILLER_30_345
*1575 FILLER_30_357
*1576 FILLER_30_363
*1577 FILLER_30_365
*1578 FILLER_30_377
*1579 FILLER_30_389
*1580 FILLER_30_401
*1581 FILLER_30_41
*1582 FILLER_30_413
*1583 FILLER_30_419
*1584 FILLER_30_421
*1585 FILLER_30_433
*1586 FILLER_30_445
*1587 FILLER_30_457
*1588 FILLER_30_469
*1589 FILLER_30_475
*1590 FILLER_30_477
*1591 FILLER_30_489
*1592 FILLER_30_501
*1593 FILLER_30_513
*1594 FILLER_30_53
*1595 FILLER_30_65
*1596 FILLER_30_77
*1597 FILLER_30_83
*1598 FILLER_30_85
*1599 FILLER_30_97
*1600 FILLER_31_105
*1601 FILLER_31_111
*1602 FILLER_31_113
*1603 FILLER_31_125
*1604 FILLER_31_137
*1605 FILLER_31_149
*1606 FILLER_31_15
*1607 FILLER_31_161
*1608 FILLER_31_167
*1609 FILLER_31_169
*1610 FILLER_31_181
*1611 FILLER_31_193
*1612 FILLER_31_205
*1613 FILLER_31_217
*1614 FILLER_31_223
*1615 FILLER_31_225
*1616 FILLER_31_237
*1617 FILLER_31_249
*1618 FILLER_31_261
*1619 FILLER_31_27
*1620 FILLER_31_273
*1621 FILLER_31_279
*1622 FILLER_31_281
*1623 FILLER_31_293
*1624 FILLER_31_3
*1625 FILLER_31_305
*1626 FILLER_31_317
*1627 FILLER_31_329
*1628 FILLER_31_335
*1629 FILLER_31_337
*1630 FILLER_31_349
*1631 FILLER_31_361
*1632 FILLER_31_373
*1633 FILLER_31_385
*1634 FILLER_31_39
*1635 FILLER_31_391
*1636 FILLER_31_393
*1637 FILLER_31_405
*1638 FILLER_31_417
*1639 FILLER_31_429
*1640 FILLER_31_441
*1641 FILLER_31_447
*1642 FILLER_31_449
*1643 FILLER_31_461
*1644 FILLER_31_473
*1645 FILLER_31_485
*1646 FILLER_31_497
*1647 FILLER_31_503
*1648 FILLER_31_505
*1649 FILLER_31_51
*1650 FILLER_31_513
*1651 FILLER_31_55
*1652 FILLER_31_57
*1653 FILLER_31_69
*1654 FILLER_31_81