*SPEF "ieee 1481-1999"
*DESIGN "wrapped_counter"
*DATE "11:11:11 Fri 11 11, 1111"
*VENDOR "OpenRCX"
*PROGRAM "Parallel Extraction"
*VERSION "1.0"
*DESIGN_FLOW "NAME_SCOPE LOCAL" "PIN_CAP NONE"
*DIVIDER /
*DELIMITER :
*BUS_DELIMITER []
*T_UNIT 1 NS
*C_UNIT 1 PF
*R_UNIT 1 OHM
*L_UNIT 1 HENRY

*NAME_MAP
*1 active
*2 chip_pin_output_bit[0]
*3 chip_pin_output_bit[1]
*4 chip_pin_output_bit[2]
*5 chip_pin_output_bit[3]
*6 chip_pin_output_bit[4]
*7 chip_pin_output_bit[5]
*8 chip_pin_output_bit[6]
*9 chip_pin_output_bit[7]
*10 clk_blip
*11 io_in[0]
*12 io_in[10]
*13 io_in[11]
*14 io_in[12]
*15 io_in[13]
*16 io_in[14]
*17 io_in[15]
*18 io_in[16]
*19 io_in[17]
*20 io_in[18]
*21 io_in[19]
*22 io_in[1]
*23 io_in[20]
*24 io_in[21]
*25 io_in[22]
*26 io_in[23]
*27 io_in[24]
*28 io_in[25]
*29 io_in[26]
*30 io_in[27]
*31 io_in[28]
*32 io_in[29]
*33 io_in[2]
*34 io_in[30]
*35 io_in[31]
*36 io_in[32]
*37 io_in[33]
*38 io_in[34]
*39 io_in[35]
*40 io_in[36]
*41 io_in[37]
*42 io_in[3]
*43 io_in[4]
*44 io_in[5]
*45 io_in[6]
*46 io_in[7]
*47 io_in[8]
*48 io_in[9]
*49 io_oeb[0]
*50 io_oeb[10]
*51 io_oeb[11]
*52 io_oeb[12]
*53 io_oeb[13]
*54 io_oeb[14]
*55 io_oeb[15]
*56 io_oeb[16]
*57 io_oeb[17]
*58 io_oeb[18]
*59 io_oeb[19]
*60 io_oeb[1]
*61 io_oeb[20]
*62 io_oeb[21]
*63 io_oeb[22]
*64 io_oeb[23]
*65 io_oeb[24]
*66 io_oeb[25]
*67 io_oeb[26]
*68 io_oeb[27]
*69 io_oeb[28]
*70 io_oeb[29]
*71 io_oeb[2]
*72 io_oeb[30]
*73 io_oeb[31]
*74 io_oeb[32]
*75 io_oeb[33]
*76 io_oeb[34]
*77 io_oeb[35]
*78 io_oeb[36]
*79 io_oeb[37]
*80 io_oeb[3]
*81 io_oeb[4]
*82 io_oeb[5]
*83 io_oeb[6]
*84 io_oeb[7]
*85 io_oeb[8]
*86 io_oeb[9]
*87 io_out[0]
*88 io_out[10]
*89 io_out[11]
*90 io_out[12]
*91 io_out[13]
*92 io_out[14]
*93 io_out[15]
*94 io_out[16]
*95 io_out[17]
*96 io_out[18]
*97 io_out[19]
*98 io_out[1]
*99 io_out[20]
*100 io_out[21]
*101 io_out[22]
*102 io_out[23]
*103 io_out[24]
*104 io_out[25]
*105 io_out[26]
*106 io_out[27]
*107 io_out[28]
*108 io_out[29]
*109 io_out[2]
*110 io_out[30]
*111 io_out[31]
*112 io_out[32]
*113 io_out[33]
*114 io_out[34]
*115 io_out[35]
*116 io_out[36]
*117 io_out[37]
*118 io_out[3]
*119 io_out[4]
*120 io_out[5]
*121 io_out[6]
*122 io_out[7]
*123 io_out[8]
*124 io_out[9]
*127 wb_clk_i
*128 DUT\.count\[0\]
*129 DUT\.count\[1\]
*130 DUT\.count\[2\]
*131 DUT\.count\[3\]
*132 DUT\.count\[4\]
*133 DUT\.count\[5\]
*134 DUT\.count\[6\]
*135 DUT\.count\[7\]
*136 _000_
*137 _001_
*138 _002_
*139 _003_
*140 _004_
*141 _005_
*142 _006_
*143 _007_
*144 _008_
*145 _009_
*146 _010_
*147 _011_
*148 _012_
*149 _013_
*150 _014_
*151 _015_
*152 _016_
*153 _017_
*154 _018_
*155 _019_
*156 _020_
*157 _021_
*158 _022_
*159 _023_
*160 _024_
*161 _025_
*162 _026_
*163 _027_
*164 _028_
*165 _029_
*166 _030_
*167 _031_
*168 _032_
*169 _033_
*170 _034_
*171 _035_
*172 _036_
*173 _037_
*174 _038_
*175 _039_
*176 _040_
*177 _041_
*178 _042_
*179 _043_
*180 _044_
*181 _045_
*182 _046_
*183 _047_
*184 _048_
*185 _049_
*186 _050_
*187 _051_
*188 _052_
*189 _053_
*190 _054_
*191 _055_
*192 _056_
*193 _057_
*194 _058_
*195 _059_
*196 _060_
*197 _061_
*198 _062_
*199 _063_
*200 _064_
*201 _065_
*202 _066_
*203 _067_
*204 _068_
*205 _069_
*206 _070_
*207 _071_
*208 _072_
*209 _073_
*210 _074_
*211 _075_
*212 _076_
*213 _077_
*214 _078_
*215 _079_
*216 _080_
*217 _081_
*218 _082_
*219 _083_
*220 _084_
*221 _085_
*222 _086_
*223 _087_
*224 _088_
*225 _089_
*226 _090_
*227 _091_
*228 _092_
*229 _093_
*230 _094_
*231 _095_
*232 _096_
*233 _097_
*234 _098_
*235 _099_
*236 _100_
*237 _101_
*238 _102_
*239 _103_
*240 _104_
*241 _105_
*242 _106_
*243 _107_
*244 _108_
*245 _109_
*246 _110_
*247 _111_
*248 _112_
*249 _113_
*250 _114_
*251 _115_
*252 _116_
*253 _117_
*254 _118_
*255 _119_
*256 net1
*257 net10
*258 net11
*259 net12
*260 net13
*261 net14
*262 net15
*263 net16
*264 net17
*265 net18
*266 net19
*267 net2
*268 net20
*269 net21
*270 net22
*271 net23
*272 net24
*273 net25
*274 net26
*275 net27
*276 net28
*277 net29
*278 net3
*279 net30
*280 net31
*281 net32
*282 net33
*283 net34
*284 net35
*285 net36
*286 net37
*287 net38
*288 net39
*289 net4
*290 net40
*291 net41
*292 net42
*293 net43
*294 net44
*295 net45
*296 net46
*297 net47
*298 net48
*299 net49
*300 net5
*301 net50
*302 net51
*303 net52
*304 net53
*305 net54
*306 net55
*307 net56
*308 net57
*309 net58
*310 net59
*311 net6
*312 net60
*313 net61
*314 net62
*315 net63
*316 net64
*317 net65
*318 net66
*319 net67
*320 net68
*321 net69
*322 net7
*323 net70
*324 net71
*325 net72
*326 net73
*327 net74
*328 net8
*329 net9
*330 FILLER_0_108
*331 FILLER_0_113
*332 FILLER_0_136
*333 FILLER_0_141
*334 FILLER_0_164
*335 FILLER_0_169
*336 FILLER_0_192
*337 FILLER_0_197
*338 FILLER_0_220
*339 FILLER_0_225
*340 FILLER_0_24
*341 FILLER_0_248
*342 FILLER_0_253
*343 FILLER_0_275
*344 FILLER_0_279
*345 FILLER_0_29
*346 FILLER_0_302
*347 FILLER_0_330
*348 FILLER_0_358
*349 FILLER_0_386
*350 FILLER_0_414
*351 FILLER_0_442
*352 FILLER_0_470
*353 FILLER_0_498
*354 FILLER_0_508
*355 FILLER_0_52
*356 FILLER_0_57
*357 FILLER_0_80
*358 FILLER_0_85
*359 FILLER_10_105
*360 FILLER_10_117
*361 FILLER_10_129
*362 FILLER_10_137
*363 FILLER_10_141
*364 FILLER_10_153
*365 FILLER_10_165
*366 FILLER_10_177
*367 FILLER_10_189
*368 FILLER_10_195
*369 FILLER_10_197
*370 FILLER_10_20
*371 FILLER_10_209
*372 FILLER_10_221
*373 FILLER_10_233
*374 FILLER_10_245
*375 FILLER_10_251
*376 FILLER_10_253
*377 FILLER_10_265
*378 FILLER_10_277
*379 FILLER_10_289
*380 FILLER_10_29
*381 FILLER_10_3
*382 FILLER_10_301
*383 FILLER_10_307
*384 FILLER_10_309
*385 FILLER_10_321
*386 FILLER_10_33
*387 FILLER_10_333
*388 FILLER_10_345
*389 FILLER_10_357
*390 FILLER_10_363
*391 FILLER_10_365
*392 FILLER_10_37
*393 FILLER_10_377
*394 FILLER_10_389
*395 FILLER_10_401
*396 FILLER_10_413
*397 FILLER_10_419
*398 FILLER_10_421
*399 FILLER_10_433
*400 FILLER_10_445
*401 FILLER_10_45
*402 FILLER_10_457
*403 FILLER_10_469
*404 FILLER_10_475
*405 FILLER_10_477
*406 FILLER_10_489
*407 FILLER_10_49
*408 FILLER_10_497
*409 FILLER_10_501
*410 FILLER_10_508
*411 FILLER_10_60
*412 FILLER_10_67
*413 FILLER_10_74
*414 FILLER_10_82
*415 FILLER_10_88
*416 FILLER_10_9
*417 FILLER_10_92
*418 FILLER_10_96
*419 FILLER_11_103
*420 FILLER_11_111
*421 FILLER_11_113
*422 FILLER_11_125
*423 FILLER_11_137
*424 FILLER_11_149
*425 FILLER_11_16
*426 FILLER_11_161
*427 FILLER_11_167
*428 FILLER_11_169
*429 FILLER_11_181
*430 FILLER_11_193
*431 FILLER_11_205
*432 FILLER_11_217
*433 FILLER_11_223
*434 FILLER_11_225
*435 FILLER_11_237
*436 FILLER_11_249
*437 FILLER_11_261
*438 FILLER_11_273
*439 FILLER_11_279
*440 FILLER_11_28
*441 FILLER_11_281
*442 FILLER_11_293
*443 FILLER_11_3
*444 FILLER_11_305
*445 FILLER_11_317
*446 FILLER_11_329
*447 FILLER_11_335
*448 FILLER_11_337
*449 FILLER_11_349
*450 FILLER_11_361
*451 FILLER_11_373
*452 FILLER_11_385
*453 FILLER_11_391
*454 FILLER_11_393
*455 FILLER_11_40
*456 FILLER_11_405
*457 FILLER_11_417
*458 FILLER_11_429
*459 FILLER_11_441
*460 FILLER_11_447
*461 FILLER_11_449
*462 FILLER_11_461
*463 FILLER_11_473
*464 FILLER_11_485
*465 FILLER_11_497
*466 FILLER_11_503
*467 FILLER_11_508
*468 FILLER_11_52
*469 FILLER_11_57
*470 FILLER_11_72
*471 FILLER_11_79
*472 FILLER_11_87
*473 FILLER_11_9
*474 FILLER_11_91
*475 FILLER_12_107
*476 FILLER_12_118
*477 FILLER_12_130
*478 FILLER_12_138
*479 FILLER_12_141
*480 FILLER_12_15
*481 FILLER_12_153
*482 FILLER_12_165
*483 FILLER_12_177
*484 FILLER_12_189
*485 FILLER_12_195
*486 FILLER_12_197
*487 FILLER_12_209
*488 FILLER_12_221
*489 FILLER_12_233
*490 FILLER_12_245
*491 FILLER_12_251
*492 FILLER_12_253
*493 FILLER_12_265
*494 FILLER_12_27
*495 FILLER_12_277
*496 FILLER_12_289
*497 FILLER_12_29
*498 FILLER_12_3
*499 FILLER_12_301
*500 FILLER_12_307
*501 FILLER_12_309
*502 FILLER_12_321
*503 FILLER_12_333
*504 FILLER_12_345
*505 FILLER_12_357
*506 FILLER_12_363
*507 FILLER_12_365
*508 FILLER_12_377
*509 FILLER_12_389
*510 FILLER_12_401
*511 FILLER_12_41
*512 FILLER_12_413
*513 FILLER_12_419
*514 FILLER_12_421
*515 FILLER_12_433
*516 FILLER_12_445
*517 FILLER_12_457
*518 FILLER_12_469
*519 FILLER_12_475
*520 FILLER_12_477
*521 FILLER_12_489
*522 FILLER_12_501
*523 FILLER_12_513
*524 FILLER_12_53
*525 FILLER_12_65
*526 FILLER_12_77
*527 FILLER_12_83
*528 FILLER_12_85
*529 FILLER_12_91
*530 FILLER_12_95
*531 FILLER_13_105
*532 FILLER_13_111
*533 FILLER_13_113
*534 FILLER_13_125
*535 FILLER_13_137
*536 FILLER_13_149
*537 FILLER_13_15
*538 FILLER_13_161
*539 FILLER_13_167
*540 FILLER_13_169
*541 FILLER_13_181
*542 FILLER_13_193
*543 FILLER_13_205
*544 FILLER_13_217
*545 FILLER_13_223
*546 FILLER_13_225
*547 FILLER_13_237
*548 FILLER_13_249
*549 FILLER_13_261
*550 FILLER_13_27
*551 FILLER_13_273
*552 FILLER_13_279
*553 FILLER_13_281
*554 FILLER_13_293
*555 FILLER_13_3
*556 FILLER_13_305
*557 FILLER_13_317
*558 FILLER_13_329
*559 FILLER_13_335
*560 FILLER_13_337
*561 FILLER_13_349
*562 FILLER_13_361
*563 FILLER_13_373
*564 FILLER_13_385
*565 FILLER_13_39
*566 FILLER_13_391
*567 FILLER_13_393
*568 FILLER_13_405
*569 FILLER_13_417
*570 FILLER_13_429
*571 FILLER_13_441
*572 FILLER_13_447
*573 FILLER_13_449
*574 FILLER_13_461
*575 FILLER_13_473
*576 FILLER_13_485
*577 FILLER_13_497
*578 FILLER_13_503
*579 FILLER_13_505
*580 FILLER_13_51
*581 FILLER_13_513
*582 FILLER_13_55
*583 FILLER_13_57
*584 FILLER_13_69
*585 FILLER_13_81
*586 FILLER_13_93
*587 FILLER_14_109
*588 FILLER_14_121
*589 FILLER_14_133
*590 FILLER_14_139
*591 FILLER_14_141
*592 FILLER_14_15
*593 FILLER_14_153
*594 FILLER_14_165
*595 FILLER_14_177
*596 FILLER_14_189
*597 FILLER_14_195
*598 FILLER_14_197
*599 FILLER_14_209
*600 FILLER_14_221
*601 FILLER_14_233
*602 FILLER_14_245
*603 FILLER_14_251
*604 FILLER_14_253
*605 FILLER_14_265
*606 FILLER_14_27
*607 FILLER_14_277
*608 FILLER_14_289
*609 FILLER_14_29
*610 FILLER_14_3
*611 FILLER_14_301
*612 FILLER_14_307
*613 FILLER_14_309
*614 FILLER_14_321
*615 FILLER_14_333
*616 FILLER_14_345
*617 FILLER_14_357
*618 FILLER_14_363
*619 FILLER_14_365
*620 FILLER_14_377
*621 FILLER_14_389
*622 FILLER_14_401
*623 FILLER_14_41
*624 FILLER_14_413
*625 FILLER_14_419
*626 FILLER_14_421
*627 FILLER_14_433
*628 FILLER_14_445
*629 FILLER_14_457
*630 FILLER_14_469
*631 FILLER_14_475
*632 FILLER_14_477
*633 FILLER_14_489
*634 FILLER_14_501
*635 FILLER_14_513
*636 FILLER_14_53
*637 FILLER_14_65
*638 FILLER_14_77
*639 FILLER_14_83
*640 FILLER_14_85
*641 FILLER_14_97
*642 FILLER_15_105
*643 FILLER_15_111
*644 FILLER_15_113
*645 FILLER_15_125
*646 FILLER_15_137
*647 FILLER_15_149
*648 FILLER_15_15
*649 FILLER_15_161
*650 FILLER_15_167
*651 FILLER_15_169
*652 FILLER_15_181
*653 FILLER_15_193
*654 FILLER_15_205
*655 FILLER_15_217
*656 FILLER_15_223
*657 FILLER_15_225
*658 FILLER_15_237
*659 FILLER_15_249
*660 FILLER_15_261
*661 FILLER_15_27
*662 FILLER_15_273
*663 FILLER_15_279
*664 FILLER_15_281
*665 FILLER_15_293
*666 FILLER_15_3
*667 FILLER_15_305
*668 FILLER_15_317
*669 FILLER_15_329
*670 FILLER_15_335
*671 FILLER_15_337
*672 FILLER_15_349
*673 FILLER_15_361
*674 FILLER_15_373
*675 FILLER_15_385
*676 FILLER_15_39
*677 FILLER_15_391
*678 FILLER_15_393
*679 FILLER_15_405
*680 FILLER_15_417
*681 FILLER_15_429
*682 FILLER_15_441
*683 FILLER_15_447
*684 FILLER_15_449
*685 FILLER_15_461
*686 FILLER_15_473
*687 FILLER_15_485
*688 FILLER_15_497
*689 FILLER_15_503
*690 FILLER_15_505
*691 FILLER_15_51
*692 FILLER_15_513
*693 FILLER_15_55
*694 FILLER_15_57
*695 FILLER_15_69
*696 FILLER_15_81
*697 FILLER_15_93
*698 FILLER_16_109
*699 FILLER_16_121
*700 FILLER_16_133
*701 FILLER_16_139
*702 FILLER_16_141
*703 FILLER_16_15
*704 FILLER_16_153
*705 FILLER_16_165
*706 FILLER_16_177
*707 FILLER_16_189
*708 FILLER_16_195
*709 FILLER_16_197
*710 FILLER_16_209
*711 FILLER_16_221
*712 FILLER_16_233
*713 FILLER_16_245
*714 FILLER_16_251
*715 FILLER_16_253
*716 FILLER_16_265
*717 FILLER_16_27
*718 FILLER_16_277
*719 FILLER_16_289
*720 FILLER_16_29
*721 FILLER_16_3
*722 FILLER_16_301
*723 FILLER_16_307
*724 FILLER_16_309
*725 FILLER_16_321
*726 FILLER_16_333
*727 FILLER_16_345
*728 FILLER_16_357
*729 FILLER_16_363
*730 FILLER_16_365
*731 FILLER_16_377
*732 FILLER_16_389
*733 FILLER_16_401
*734 FILLER_16_41
*735 FILLER_16_413
*736 FILLER_16_419
*737 FILLER_16_421
*738 FILLER_16_433
*739 FILLER_16_445
*740 FILLER_16_457
*741 FILLER_16_469
*742 FILLER_16_475
*743 FILLER_16_477
*744 FILLER_16_489
*745 FILLER_16_501
*746 FILLER_16_513
*747 FILLER_16_53
*748 FILLER_16_65
*749 FILLER_16_77
*750 FILLER_16_83
*751 FILLER_16_85
*752 FILLER_16_97
*753 FILLER_17_105
*754 FILLER_17_111
*755 FILLER_17_113
*756 FILLER_17_125
*757 FILLER_17_137
*758 FILLER_17_149
*759 FILLER_17_15
*760 FILLER_17_161
*761 FILLER_17_167
*762 FILLER_17_169
*763 FILLER_17_181
*764 FILLER_17_193
*765 FILLER_17_205
*766 FILLER_17_217
*767 FILLER_17_223
*768 FILLER_17_225
*769 FILLER_17_237
*770 FILLER_17_249
*771 FILLER_17_261
*772 FILLER_17_27
*773 FILLER_17_273
*774 FILLER_17_279
*775 FILLER_17_281
*776 FILLER_17_293
*777 FILLER_17_3
*778 FILLER_17_305
*779 FILLER_17_317
*780 FILLER_17_329
*781 FILLER_17_335
*782 FILLER_17_337
*783 FILLER_17_349
*784 FILLER_17_361
*785 FILLER_17_373
*786 FILLER_17_385
*787 FILLER_17_39
*788 FILLER_17_391
*789 FILLER_17_393
*790 FILLER_17_405
*791 FILLER_17_417
*792 FILLER_17_429
*793 FILLER_17_441
*794 FILLER_17_447
*795 FILLER_17_449
*796 FILLER_17_461
*797 FILLER_17_473
*798 FILLER_17_485
*799 FILLER_17_497
*800 FILLER_17_503
*801 FILLER_17_505
*802 FILLER_17_51
*803 FILLER_17_513
*804 FILLER_17_55
*805 FILLER_17_57
*806 FILLER_17_69
*807 FILLER_17_81
*808 FILLER_17_93
*809 FILLER_18_109
*810 FILLER_18_121
*811 FILLER_18_133
*812 FILLER_18_139
*813 FILLER_18_141
*814 FILLER_18_15
*815 FILLER_18_153
*816 FILLER_18_165
*817 FILLER_18_177
*818 FILLER_18_189
*819 FILLER_18_195
*820 FILLER_18_197
*821 FILLER_18_209
*822 FILLER_18_221
*823 FILLER_18_233
*824 FILLER_18_245
*825 FILLER_18_251
*826 FILLER_18_253
*827 FILLER_18_265
*828 FILLER_18_27
*829 FILLER_18_277
*830 FILLER_18_289
*831 FILLER_18_29
*832 FILLER_18_3
*833 FILLER_18_301
*834 FILLER_18_307
*835 FILLER_18_309
*836 FILLER_18_321
*837 FILLER_18_333
*838 FILLER_18_345
*839 FILLER_18_357
*840 FILLER_18_363
*841 FILLER_18_365
*842 FILLER_18_377
*843 FILLER_18_389
*844 FILLER_18_401
*845 FILLER_18_41
*846 FILLER_18_413
*847 FILLER_18_419
*848 FILLER_18_421
*849 FILLER_18_433
*850 FILLER_18_445
*851 FILLER_18_457
*852 FILLER_18_469
*853 FILLER_18_475
*854 FILLER_18_477
*855 FILLER_18_489
*856 FILLER_18_501
*857 FILLER_18_513
*858 FILLER_18_53
*859 FILLER_18_65
*860 FILLER_18_77
*861 FILLER_18_83
*862 FILLER_18_85
*863 FILLER_18_97
*864 FILLER_19_105
*865 FILLER_19_111
*866 FILLER_19_113
*867 FILLER_19_125
*868 FILLER_19_137
*869 FILLER_19_149
*870 FILLER_19_15
*871 FILLER_19_161
*872 FILLER_19_167
*873 FILLER_19_169
*874 FILLER_19_181
*875 FILLER_19_193
*876 FILLER_19_205
*877 FILLER_19_217
*878 FILLER_19_223
*879 FILLER_19_225
*880 FILLER_19_237
*881 FILLER_19_249
*882 FILLER_19_261
*883 FILLER_19_27
*884 FILLER_19_273
*885 FILLER_19_279
*886 FILLER_19_281
*887 FILLER_19_293
*888 FILLER_19_3
*889 FILLER_19_305
*890 FILLER_19_317
*891 FILLER_19_329
*892 FILLER_19_335
*893 FILLER_19_337
*894 FILLER_19_349
*895 FILLER_19_361
*896 FILLER_19_373
*897 FILLER_19_385
*898 FILLER_19_39
*899 FILLER_19_391
*900 FILLER_19_393
*901 FILLER_19_405
*902 FILLER_19_417
*903 FILLER_19_429
*904 FILLER_19_441
*905 FILLER_19_447
*906 FILLER_19_449
*907 FILLER_19_461
*908 FILLER_19_473
*909 FILLER_19_485
*910 FILLER_19_497
*911 FILLER_19_503
*912 FILLER_19_505
*913 FILLER_19_51
*914 FILLER_19_513
*915 FILLER_19_55
*916 FILLER_19_57
*917 FILLER_19_69
*918 FILLER_19_81
*919 FILLER_19_93
*920 FILLER_1_108
*921 FILLER_1_113
*922 FILLER_1_117
*923 FILLER_1_139
*924 FILLER_1_164
*925 FILLER_1_169
*926 FILLER_1_173
*927 FILLER_1_195
*928 FILLER_1_220
*929 FILLER_1_225
*930 FILLER_1_229
*931 FILLER_1_251
*932 FILLER_1_27
*933 FILLER_1_276
*934 FILLER_1_3
*935 FILLER_1_302
*936 FILLER_1_327
*937 FILLER_1_335
*938 FILLER_1_358
*939 FILLER_1_383
*940 FILLER_1_391
*941 FILLER_1_414
*942 FILLER_1_439
*943 FILLER_1_447
*944 FILLER_1_470
*945 FILLER_1_495
*946 FILLER_1_503
*947 FILLER_1_508
*948 FILLER_1_52
*949 FILLER_1_57
*950 FILLER_1_61
*951 FILLER_1_83
*952 FILLER_20_109
*953 FILLER_20_121
*954 FILLER_20_133
*955 FILLER_20_139
*956 FILLER_20_141
*957 FILLER_20_15
*958 FILLER_20_153
*959 FILLER_20_165
*960 FILLER_20_177
*961 FILLER_20_189
*962 FILLER_20_195
*963 FILLER_20_197
*964 FILLER_20_209
*965 FILLER_20_221
*966 FILLER_20_233
*967 FILLER_20_245
*968 FILLER_20_251
*969 FILLER_20_253
*970 FILLER_20_265
*971 FILLER_20_27
*972 FILLER_20_277
*973 FILLER_20_289
*974 FILLER_20_29
*975 FILLER_20_3
*976 FILLER_20_301
*977 FILLER_20_307
*978 FILLER_20_309
*979 FILLER_20_321
*980 FILLER_20_333
*981 FILLER_20_345
*982 FILLER_20_357
*983 FILLER_20_363
*984 FILLER_20_365
*985 FILLER_20_377
*986 FILLER_20_389
*987 FILLER_20_401
*988 FILLER_20_41
*989 FILLER_20_413
*990 FILLER_20_419
*991 FILLER_20_421
*992 FILLER_20_433
*993 FILLER_20_445
*994 FILLER_20_457
*995 FILLER_20_469
*996 FILLER_20_475
*997 FILLER_20_477
*998 FILLER_20_489
*999 FILLER_20_501
*1000 FILLER_20_513
*1001 FILLER_20_53
*1002 FILLER_20_65
*1003 FILLER_20_77
*1004 FILLER_20_83
*1005 FILLER_20_85
*1006 FILLER_20_97
*1007 FILLER_21_105
*1008 FILLER_21_11
*1009 FILLER_21_111
*1010 FILLER_21_113
*1011 FILLER_21_125
*1012 FILLER_21_137
*1013 FILLER_21_149
*1014 FILLER_21_161
*1015 FILLER_21_167
*1016 FILLER_21_169
*1017 FILLER_21_181
*1018 FILLER_21_193
*1019 FILLER_21_205
*1020 FILLER_21_217
*1021 FILLER_21_223
*1022 FILLER_21_225
*1023 FILLER_21_23
*1024 FILLER_21_237
*1025 FILLER_21_249
*1026 FILLER_21_261
*1027 FILLER_21_273
*1028 FILLER_21_279
*1029 FILLER_21_281
*1030 FILLER_21_293
*1031 FILLER_21_3
*1032 FILLER_21_305
*1033 FILLER_21_317
*1034 FILLER_21_329
*1035 FILLER_21_335
*1036 FILLER_21_337
*1037 FILLER_21_349
*1038 FILLER_21_35
*1039 FILLER_21_361
*1040 FILLER_21_373
*1041 FILLER_21_385
*1042 FILLER_21_391
*1043 FILLER_21_393
*1044 FILLER_21_405
*1045 FILLER_21_417
*1046 FILLER_21_429
*1047 FILLER_21_441
*1048 FILLER_21_447
*1049 FILLER_21_449
*1050 FILLER_21_461
*1051 FILLER_21_47
*1052 FILLER_21_473
*1053 FILLER_21_485
*1054 FILLER_21_497
*1055 FILLER_21_503
*1056 FILLER_21_505
*1057 FILLER_21_513
*1058 FILLER_21_55
*1059 FILLER_21_57
*1060 FILLER_21_69
*1061 FILLER_21_81
*1062 FILLER_21_93
*1063 FILLER_22_109
*1064 FILLER_22_121
*1065 FILLER_22_133
*1066 FILLER_22_139
*1067 FILLER_22_141
*1068 FILLER_22_15
*1069 FILLER_22_153
*1070 FILLER_22_165
*1071 FILLER_22_177
*1072 FILLER_22_189
*1073 FILLER_22_195
*1074 FILLER_22_197
*1075 FILLER_22_209
*1076 FILLER_22_221
*1077 FILLER_22_233
*1078 FILLER_22_245
*1079 FILLER_22_251
*1080 FILLER_22_253
*1081 FILLER_22_265
*1082 FILLER_22_27
*1083 FILLER_22_277
*1084 FILLER_22_289
*1085 FILLER_22_29
*1086 FILLER_22_3
*1087 FILLER_22_301
*1088 FILLER_22_307
*1089 FILLER_22_309
*1090 FILLER_22_321
*1091 FILLER_22_333
*1092 FILLER_22_345
*1093 FILLER_22_357
*1094 FILLER_22_363
*1095 FILLER_22_365
*1096 FILLER_22_377
*1097 FILLER_22_389
*1098 FILLER_22_401
*1099 FILLER_22_41
*1100 FILLER_22_413
*1101 FILLER_22_419
*1102 FILLER_22_421
*1103 FILLER_22_433
*1104 FILLER_22_445
*1105 FILLER_22_457
*1106 FILLER_22_469
*1107 FILLER_22_475
*1108 FILLER_22_477
*1109 FILLER_22_489
*1110 FILLER_22_501
*1111 FILLER_22_513
*1112 FILLER_22_53
*1113 FILLER_22_65
*1114 FILLER_22_77
*1115 FILLER_22_83
*1116 FILLER_22_85
*1117 FILLER_22_97
*1118 FILLER_23_105
*1119 FILLER_23_111
*1120 FILLER_23_113
*1121 FILLER_23_125
*1122 FILLER_23_137
*1123 FILLER_23_149
*1124 FILLER_23_15
*1125 FILLER_23_161
*1126 FILLER_23_167
*1127 FILLER_23_169
*1128 FILLER_23_181
*1129 FILLER_23_193
*1130 FILLER_23_205
*1131 FILLER_23_217
*1132 FILLER_23_223
*1133 FILLER_23_225
*1134 FILLER_23_237
*1135 FILLER_23_249
*1136 FILLER_23_261
*1137 FILLER_23_27
*1138 FILLER_23_273
*1139 FILLER_23_279
*1140 FILLER_23_281
*1141 FILLER_23_293
*1142 FILLER_23_3
*1143 FILLER_23_305
*1144 FILLER_23_317
*1145 FILLER_23_329
*1146 FILLER_23_335
*1147 FILLER_23_337
*1148 FILLER_23_349
*1149 FILLER_23_361
*1150 FILLER_23_373
*1151 FILLER_23_385
*1152 FILLER_23_39
*1153 FILLER_23_391
*1154 FILLER_23_393
*1155 FILLER_23_405
*1156 FILLER_23_417
*1157 FILLER_23_429
*1158 FILLER_23_441
*1159 FILLER_23_447
*1160 FILLER_23_449
*1161 FILLER_23_461
*1162 FILLER_23_473
*1163 FILLER_23_485
*1164 FILLER_23_497
*1165 FILLER_23_503
*1166 FILLER_23_505
*1167 FILLER_23_51
*1168 FILLER_23_513
*1169 FILLER_23_55
*1170 FILLER_23_57
*1171 FILLER_23_69
*1172 FILLER_23_81
*1173 FILLER_23_93
*1174 FILLER_24_109
*1175 FILLER_24_121
*1176 FILLER_24_133
*1177 FILLER_24_139
*1178 FILLER_24_141
*1179 FILLER_24_15
*1180 FILLER_24_153
*1181 FILLER_24_165
*1182 FILLER_24_177
*1183 FILLER_24_189
*1184 FILLER_24_195
*1185 FILLER_24_197
*1186 FILLER_24_209
*1187 FILLER_24_221
*1188 FILLER_24_233
*1189 FILLER_24_245
*1190 FILLER_24_251
*1191 FILLER_24_253
*1192 FILLER_24_265
*1193 FILLER_24_27
*1194 FILLER_24_277
*1195 FILLER_24_289
*1196 FILLER_24_29
*1197 FILLER_24_3
*1198 FILLER_24_301
*1199 FILLER_24_307
*1200 FILLER_24_309
*1201 FILLER_24_321
*1202 FILLER_24_333
*1203 FILLER_24_345
*1204 FILLER_24_357
*1205 FILLER_24_363
*1206 FILLER_24_365
*1207 FILLER_24_377
*1208 FILLER_24_389
*1209 FILLER_24_401
*1210 FILLER_24_41
*1211 FILLER_24_413
*1212 FILLER_24_419
*1213 FILLER_24_421
*1214 FILLER_24_433
*1215 FILLER_24_445
*1216 FILLER_24_457
*1217 FILLER_24_469
*1218 FILLER_24_475
*1219 FILLER_24_477
*1220 FILLER_24_489
*1221 FILLER_24_501
*1222 FILLER_24_513
*1223 FILLER_24_53
*1224 FILLER_24_65
*1225 FILLER_24_77
*1226 FILLER_24_83
*1227 FILLER_24_85
*1228 FILLER_24_97
*1229 FILLER_25_105
*1230 FILLER_25_111
*1231 FILLER_25_113
*1232 FILLER_25_125
*1233 FILLER_25_137
*1234 FILLER_25_149
*1235 FILLER_25_15
*1236 FILLER_25_161
*1237 FILLER_25_167
*1238 FILLER_25_169
*1239 FILLER_25_181
*1240 FILLER_25_193
*1241 FILLER_25_205
*1242 FILLER_25_217
*1243 FILLER_25_223
*1244 FILLER_25_225
*1245 FILLER_25_237
*1246 FILLER_25_249
*1247 FILLER_25_261
*1248 FILLER_25_27
*1249 FILLER_25_273
*1250 FILLER_25_279
*1251 FILLER_25_281
*1252 FILLER_25_293
*1253 FILLER_25_3
*1254 FILLER_25_305
*1255 FILLER_25_317
*1256 FILLER_25_329
*1257 FILLER_25_335
*1258 FILLER_25_337
*1259 FILLER_25_349
*1260 FILLER_25_361
*1261 FILLER_25_373
*1262 FILLER_25_385
*1263 FILLER_25_39
*1264 FILLER_25_391
*1265 FILLER_25_393
*1266 FILLER_25_405
*1267 FILLER_25_417
*1268 FILLER_25_429
*1269 FILLER_25_441
*1270 FILLER_25_447
*1271 FILLER_25_449
*1272 FILLER_25_461
*1273 FILLER_25_473
*1274 FILLER_25_485
*1275 FILLER_25_497
*1276 FILLER_25_503
*1277 FILLER_25_505
*1278 FILLER_25_51
*1279 FILLER_25_513
*1280 FILLER_25_55
*1281 FILLER_25_57
*1282 FILLER_25_69
*1283 FILLER_25_81
*1284 FILLER_25_93
*1285 FILLER_26_109
*1286 FILLER_26_121
*1287 FILLER_26_133
*1288 FILLER_26_139
*1289 FILLER_26_141
*1290 FILLER_26_15
*1291 FILLER_26_153
*1292 FILLER_26_165
*1293 FILLER_26_177
*1294 FILLER_26_189
*1295 FILLER_26_195
*1296 FILLER_26_197
*1297 FILLER_26_209
*1298 FILLER_26_221
*1299 FILLER_26_233
*1300 FILLER_26_245
*1301 FILLER_26_251
*1302 FILLER_26_253
*1303 FILLER_26_265
*1304 FILLER_26_27
*1305 FILLER_26_277
*1306 FILLER_26_289
*1307 FILLER_26_29
*1308 FILLER_26_3
*1309 FILLER_26_301
*1310 FILLER_26_307
*1311 FILLER_26_309
*1312 FILLER_26_321
*1313 FILLER_26_333
*1314 FILLER_26_345
*1315 FILLER_26_357
*1316 FILLER_26_363
*1317 FILLER_26_365
*1318 FILLER_26_377
*1319 FILLER_26_389
*1320 FILLER_26_401
*1321 FILLER_26_41
*1322 FILLER_26_413
*1323 FILLER_26_419
*1324 FILLER_26_421
*1325 FILLER_26_433
*1326 FILLER_26_445
*1327 FILLER_26_457
*1328 FILLER_26_469
*1329 FILLER_26_475
*1330 FILLER_26_477
*1331 FILLER_26_489
*1332 FILLER_26_501
*1333 FILLER_26_513
*1334 FILLER_26_53
*1335 FILLER_26_65
*1336 FILLER_26_77
*1337 FILLER_26_83
*1338 FILLER_26_85
*1339 FILLER_26_97
*1340 FILLER_27_105
*1341 FILLER_27_111
*1342 FILLER_27_113
*1343 FILLER_27_125
*1344 FILLER_27_137
*1345 FILLER_27_149
*1346 FILLER_27_15
*1347 FILLER_27_161
*1348 FILLER_27_167
*1349 FILLER_27_169
*1350 FILLER_27_181
*1351 FILLER_27_193
*1352 FILLER_27_205
*1353 FILLER_27_217
*1354 FILLER_27_223
*1355 FILLER_27_225
*1356 FILLER_27_237
*1357 FILLER_27_249
*1358 FILLER_27_261
*1359 FILLER_27_27
*1360 FILLER_27_273
*1361 FILLER_27_279
*1362 FILLER_27_281
*1363 FILLER_27_293
*1364 FILLER_27_3
*1365 FILLER_27_305
*1366 FILLER_27_317
*1367 FILLER_27_329
*1368 FILLER_27_335
*1369 FILLER_27_337
*1370 FILLER_27_349
*1371 FILLER_27_361
*1372 FILLER_27_373
*1373 FILLER_27_385
*1374 FILLER_27_39
*1375 FILLER_27_391
*1376 FILLER_27_393
*1377 FILLER_27_405
*1378 FILLER_27_417
*1379 FILLER_27_429
*1380 FILLER_27_441
*1381 FILLER_27_447
*1382 FILLER_27_449
*1383 FILLER_27_461
*1384 FILLER_27_473
*1385 FILLER_27_485
*1386 FILLER_27_497
*1387 FILLER_27_503
*1388 FILLER_27_505
*1389 FILLER_27_51
*1390 FILLER_27_513
*1391 FILLER_27_55
*1392 FILLER_27_57
*1393 FILLER_27_69
*1394 FILLER_27_81
*1395 FILLER_27_93
*1396 FILLER_28_109
*1397 FILLER_28_121
*1398 FILLER_28_133
*1399 FILLER_28_139
*1400 FILLER_28_141
*1401 FILLER_28_15
*1402 FILLER_28_153
*1403 FILLER_28_165
*1404 FILLER_28_177
*1405 FILLER_28_189
*1406 FILLER_28_195
*1407 FILLER_28_197
*1408 FILLER_28_209
*1409 FILLER_28_221
*1410 FILLER_28_233
*1411 FILLER_28_245
*1412 FILLER_28_251
*1413 FILLER_28_253
*1414 FILLER_28_265
*1415 FILLER_28_27
*1416 FILLER_28_277
*1417 FILLER_28_289
*1418 FILLER_28_29
*1419 FILLER_28_3
*1420 FILLER_28_301
*1421 FILLER_28_307
*1422 FILLER_28_309
*1423 FILLER_28_321
*1424 FILLER_28_333
*1425 FILLER_28_345
*1426 FILLER_28_357
*1427 FILLER_28_363
*1428 FILLER_28_365
*1429 FILLER_28_377
*1430 FILLER_28_389
*1431 FILLER_28_401
*1432 FILLER_28_41
*1433 FILLER_28_413
*1434 FILLER_28_419
*1435 FILLER_28_421
*1436 FILLER_28_433
*1437 FILLER_28_445
*1438 FILLER_28_457
*1439 FILLER_28_469
*1440 FILLER_28_475
*1441 FILLER_28_477
*1442 FILLER_28_489
*1443 FILLER_28_501
*1444 FILLER_28_513
*1445 FILLER_28_53
*1446 FILLER_28_65
*1447 FILLER_28_77
*1448 FILLER_28_83
*1449 FILLER_28_85
*1450 FILLER_28_97
*1451 FILLER_29_105
*1452 FILLER_29_111
*1453 FILLER_29_113
*1454 FILLER_29_125
*1455 FILLER_29_137
*1456 FILLER_29_149
*1457 FILLER_29_15
*1458 FILLER_29_161
*1459 FILLER_29_167
*1460 FILLER_29_169
*1461 FILLER_29_181
*1462 FILLER_29_193
*1463 FILLER_29_205
*1464 FILLER_29_217
*1465 FILLER_29_223
*1466 FILLER_29_225
*1467 FILLER_29_237
*1468 FILLER_29_249
*1469 FILLER_29_261
*1470 FILLER_29_27
*1471 FILLER_29_273
*1472 FILLER_29_279
*1473 FILLER_29_281
*1474 FILLER_29_293
*1475 FILLER_29_3
*1476 FILLER_29_305
*1477 FILLER_29_317
*1478 FILLER_29_329
*1479 FILLER_29_335
*1480 FILLER_29_337
*1481 FILLER_29_349
*1482 FILLER_29_361
*1483 FILLER_29_373
*1484 FILLER_29_385
*1485 FILLER_29_39
*1486 FILLER_29_391
*1487 FILLER_29_393
*1488 FILLER_29_405
*1489 FILLER_29_417
*1490 FILLER_29_429
*1491 FILLER_29_441
*1492 FILLER_29_447
*1493 FILLER_29_449
*1494 FILLER_29_461
*1495 FILLER_29_473
*1496 FILLER_29_485
*1497 FILLER_29_497
*1498 FILLER_29_503
*1499 FILLER_29_505
*1500 FILLER_29_51
*1501 FILLER_29_513
*1502 FILLER_29_55
*1503 FILLER_29_57
*1504 FILLER_29_69
*1505 FILLER_29_81
*1506 FILLER_29_93
*1507 FILLER_2_109
*1508 FILLER_2_134
*1509 FILLER_2_162
*1510 FILLER_2_187
*1511 FILLER_2_195
*1512 FILLER_2_218
*1513 FILLER_2_24
*1514 FILLER_2_245
*1515 FILLER_2_251
*1516 FILLER_2_256
*1517 FILLER_2_263
*1518 FILLER_2_288
*1519 FILLER_2_29
*1520 FILLER_2_295
*1521 FILLER_2_302
*1522 FILLER_2_33
*1523 FILLER_2_330
*1524 FILLER_2_355
*1525 FILLER_2_363
*1526 FILLER_2_386
*1527 FILLER_2_411
*1528 FILLER_2_419
*1529 FILLER_2_442
*1530 FILLER_2_467
*1531 FILLER_2_475
*1532 FILLER_2_498
*1533 FILLER_2_505
*1534 FILLER_2_512
*1535 FILLER_2_55
*1536 FILLER_2_80
*1537 FILLER_2_85
*1538 FILLER_30_109
*1539 FILLER_30_121
*1540 FILLER_30_133
*1541 FILLER_30_139
*1542 FILLER_30_141
*1543 FILLER_30_15
*1544 FILLER_30_153
*1545 FILLER_30_165
*1546 FILLER_30_177
*1547 FILLER_30_189
*1548 FILLER_30_195
*1549 FILLER_30_197
*1550 FILLER_30_209
*1551 FILLER_30_221
*1552 FILLER_30_233
*1553 FILLER_30_245
*1554 FILLER_30_251
*1555 FILLER_30_253
*1556 FILLER_30_265
*1557 FILLER_30_27
*1558 FILLER_30_277
*1559 FILLER_30_289
*1560 FILLER_30_29
*1561 FILLER_30_3
*1562 FILLER_30_301
*1563 FILLER_30_307
*1564 FILLER_30_309
*1565 FILLER_30_321
*1566 FILLER_30_333
*1567 FILLER_30_345
*1568 FILLER_30_357
*1569 FILLER_30_363
*1570 FILLER_30_365
*1571 FILLER_30_377
*1572 FILLER_30_389
*1573 FILLER_30_401
*1574 FILLER_30_41
*1575 FILLER_30_413
*1576 FILLER_30_419
*1577 FILLER_30_421
*1578 FILLER_30_433
*1579 FILLER_30_445
*1580 FILLER_30_457
*1581 FILLER_30_469
*1582 FILLER_30_475
*1583 FILLER_30_477
*1584 FILLER_30_489
*1585 FILLER_30_501
*1586 FILLER_30_513
*1587 FILLER_30_53
*1588 FILLER_30_65
*1589 FILLER_30_77
*1590 FILLER_30_83
*1591 FILLER_30_85
*1592 FILLER_30_97
*1593 FILLER_31_105
*1594 FILLER_31_111
*1595 FILLER_31_113
*1596 FILLER_31_125
*1597 FILLER_31_137
*1598 FILLER_31_149
*1599 FILLER_31_15
*1600 FILLER_31_161
*1601 FILLER_31_167
*1602 FILLER_31_169
*1603 FILLER_31_181
*1604 FILLER_31_193
*1605 FILLER_31_205
*1606 FILLER_31_217
*1607 FILLER_31_223
*1608 FILLER_31_225
*1609 FILLER_31_237
*1610 FILLER_31_249
*1611 FILLER_31_261
*1612 FILLER_31_27
*1613 FILLER_31_273
*1614 FILLER_31_279
*1615 FILLER_31_281
*1616 FILLER_31_293
*1617 FILLER_31_3
*1618 FILLER_31_305
*1619 FILLER_31_317
*1620 FILLER_31_329
*1621 FILLER_31_335
*1622 FILLER_31_337
*1623 FILLER_31_349
*1624 FILLER_31_361
*1625 FILLER_31_373
*1626 FILLER_31_385
*1627 FILLER_31_39
*1628 FILLER_31_391
*1629 FILLER_31_393
*1630 FILLER_31_405
*1631 FILLER_31_417
*1632 FILLER_31_429
*1633 FILLER_31_441
*1634 FILLER_31_447
*1635 FILLER_31_449
*1636 FILLER_31_461
*1637 FILLER_31_473
*1638 FILLER_31_485
*1639 FILLER_31_497
*1640 FILLER_31_503
*1641 FILLER_31_505
*1642 FILLER_31_51
*1643 FILLER_31_513
*1644 FILLER_31_55
*1645 FILLER_31_57
*1646 FILLER_31_69
*1647 FILLER_31_81
*1648 FILLER_31_93
*1649 FILLER_32_109
*1650 FILLER_32_121
*1651 FILLER_32_133
*1652 FILLER_32_139
*1653 FILLER_32_141
*1654 FILLER_32_15
*1655 FILLER_32_153